@<TRIPOS>MOLECULE
/home/etienne-reboul/Canada_internship/OptiMol-master/docking/data_docking/RNA_only_6UC9.pqr
 2145 2312 0 0 0
SMALL
GASTEIGER

@<TRIPOS>ATOM
      1  O5'        2.6690    3.7820   20.5330 O.3    15  RG15        0.0000
      2  C5'        3.5000    3.5920   21.6690 C.3    15  RG15        0.0000
      3  C4'        3.7620    2.1280   21.9340 C.3    15  RG15        0.0000
      4  O4'        2.5200    1.4690   22.3310 O.3    15  RG15        0.0000
      5  C3'        4.2390    1.3000   20.7480 C.3    15  RG15        0.0000
      6  O3'        5.5990    1.5280   20.3490 O.3    15  RG15        0.0000
      7  C2'        3.8250   -0.1120   21.1610 C.3    15  RG15        0.0000
      8  O2'        4.6220   -0.6080   22.2280 O.3    15  RG15        0.0000
      9  C1'        2.4490    0.1800   21.7460 C.3    15  RG15        0.0000
     10  N9         1.4140    0.2270   20.6920 N.ar   15  RG15        0.0000
     11  C8         0.8310    1.3710   20.1930 C.ar   15  RG15        0.0000
     12  N7        -0.0530    1.1450   19.2620 N.ar   15  RG15        0.0000
     13  C5        -0.0580   -0.2370   19.1260 C.ar   15  RG15        0.0000
     14  C6        -0.8210   -1.0670   18.2570 C.ar   15  RG15        0.0000
     15  O6        -1.6690   -0.7310   17.4150 O.2    15  RG15        0.0000
     16  N1        -0.5190   -2.4140   18.4410 N.ar   15  RG15        0.0000
     17  C2         0.4000   -2.8920   19.3440 C.ar   15  RG15        0.0000
     18  N2         0.5510   -4.2230   19.3730 N.pl3  15  RG15        0.0000
     19  N3         1.1210   -2.1320   20.1580 N.ar   15  RG15        0.0000
     20  C4         0.8430   -0.8210   19.9990 C.ar   15  RG15        0.0000
     21  H5'        3.0210    4.0350   22.5550 H      15  RG15        0.0000
     22 H5''        4.4660    4.0750   21.5130 H      15  RG15        0.0000
     23  H4'        4.4150    2.0220   22.8060 H      15  RG15        0.0000
     24  H1'        2.0510   -0.5260   22.4730 H      15  RG15        0.0000
     25  H8         1.1200    2.3370   20.5790 H      15  RG15        0.0000
     26  H1        -1.0040   -3.0790   17.8770 H      15  RG15        0.0000
     27  H21        0.0590   -4.9060   18.8160 H      15  RG15        0.0000
     28  H22        1.2190   -4.5860   20.0400 H      15  RG15        0.0000
     29  H3'        3.6920    1.5910   19.8540 H      15  RG15        0.0000
     30  H2'        4.3400   -0.8420   20.5540 H      15  RG15        0.0000
     31 H2''        4.1050   -1.4530   22.3770 H      15  RG15        0.0000
     32  H5T        2.4420    4.6770   20.2520 H      15  RG15        0.0000
     33  P          6.8430    0.6060   20.8000 P.3    16  RG16        0.0000
     34  OP1        6.7900    0.4170   22.2720 O.3    16  RG16        0.0000
     35  OP2        8.0720    1.1870   20.2020 O.2    16  RG16        0.0000
     36  O5'        6.5960   -0.7910   20.0750 O.3    16  RG16        0.0000
     37  C5'        7.0890   -1.9910   20.6480 C.3    16  RG16        0.0000
     38  C4'        6.5130   -3.2160   19.9850 C.3    16  RG16        0.0000
     39  O4'        5.0620   -3.1860   20.0240 O.3    16  RG16        0.0000
     40  C3'        6.8240   -3.3900   18.5110 C.3    16  RG16        0.0000
     41  O3'        8.1390   -3.8570   18.2710 O.3    16  RG16        0.0000
     42  C2'        5.7300   -4.3520   18.0650 C.3    16  RG16        0.0000
     43  O2'        6.0290   -5.6750   18.4870 O.3    16  RG16        0.0000
     44  C1'        4.5430   -3.8480   18.8840 C.3    16  RG16        0.0000
     45  N9         3.7000   -2.9090   18.1160 N.ar   16  RG16        0.0000
     46  C8         3.6760   -1.5400   18.2190 C.ar   16  RG16        0.0000
     47  N7         2.8240   -0.9700   17.4130 N.ar   16  RG16        0.0000
     48  C5         2.2500   -2.0280   16.7260 C.ar   16  RG16        0.0000
     49  C6         1.2560   -2.0240   15.7190 C.ar   16  RG16        0.0000
     50  O6         0.6700   -1.0580   15.2210 O.2    16  RG16        0.0000
     51  N1         0.9580   -3.3110   15.2890 N.ar   16  RG16        0.0000
     52  C2         1.5420   -4.4560   15.7680 C.ar   16  RG16        0.0000
     53  N2         1.1130   -5.5980   15.2170 N.pl3  16  RG16        0.0000
     54  N3         2.4730   -4.4760   16.7120 N.ar   16  RG16        0.0000
     55  C4         2.7780   -3.2330   17.1440 C.ar   16  RG16        0.0000
     56  H5'        6.8420   -2.0160   21.7220 H      16  RG16        0.0000
     57 H5''        8.1730   -2.0450   20.5360 H      16  RG16        0.0000
     58  H4'        6.7830   -4.1100   20.5640 H      16  RG16        0.0000
     59  H1'        3.8440   -4.6280   19.2040 H      16  RG16        0.0000
     60  H8         4.3240   -1.0370   18.9210 H      16  RG16        0.0000
     61  H1         0.2640   -3.4110   14.5750 H      16  RG16        0.0000
     62  H21        0.4070   -5.7090   14.5040 H      16  RG16        0.0000
     63  H22        1.5310   -6.4520   15.5680 H      16  RG16        0.0000
     64  H3'        6.7040   -2.4380   17.9940 H      16  RG16        0.0000
     65  H2'        5.9570   -4.7370   17.0750 H      16  RG16        0.0000
     66 H2''        5.1620   -6.0820   18.1780 H      16  RG16        0.0000
     67  P          8.9010   -3.4460   16.9160 P.3    17  RA17        0.0000
     68  OP1       10.3100   -3.9120   17.0170 O.3    17  RA17        0.0000
     69  OP2        8.6150   -2.0150   16.6340 O.2    17  RA17        0.0000
     70  O5'        8.1720   -4.3170   15.8010 O.3    17  RA17        0.0000
     71  C5'        8.0710   -5.7270   15.9330 C.3    17  RA17        0.0000
     72  C4'        7.2320   -6.3160   14.8300 C.3    17  RA17        0.0000
     73  O4'        5.8350   -5.9630   15.0150 O.3    17  RA17        0.0000
     74  C3'        7.5580   -5.8160   13.4360 C.3    17  RA17        0.0000
     75  O3'        8.6900   -6.4650   12.8860 O.3    17  RA17        0.0000
     76  C2'        6.2570   -6.0620   12.6800 C.3    17  RA17        0.0000
     77  O2'        6.1290   -7.4310   12.3250 O.3    17  RA17        0.0000
     78  C1'        5.2210   -5.7470   13.7620 C.3    17  RA17        0.0000
     79  N9         4.7560   -4.3460   13.7110 N.ar   17  RA17        0.0000
     80  C8         5.2540   -3.2700   14.4120 C.ar   17  RA17        0.0000
     81  N7         4.6320   -2.1390   14.1680 N.ar   17  RA17        0.0000
     82  C5         3.6590   -2.4910   13.2440 C.ar   17  RA17        0.0000
     83  C6         2.6670   -1.7450   12.5870 C.3    17  RA17        0.0000
     84  N6         2.4920   -0.4380   12.7700 N.3    17  RA17        0.0000
     85  N1         1.8500   -2.3930   11.7270 N.2    17  RA17        0.0000
     86  C2         2.0270   -3.7080   11.5430 C.2    17  RA17        0.0000
     87  N3         2.9240   -4.5190   12.1010 N.pl3  17  RA17        0.0000
     88  C4         3.7200   -3.8450   12.9530 C.ar   17  RA17        0.0000
     89  H5'        7.6170   -5.9750   16.9020 H      17  RA17        0.0000
     90 H5''        9.0620   -6.1810   15.8810 H      17  RA17        0.0000
     91  H4'        7.2480   -7.4110   14.8990 H      17  RA17        0.0000
     92  H1'        4.3030   -6.3310   13.7090 H      17  RA17        0.0000
     93  H8         6.1120   -3.3910   15.0500 H      17  RA17        0.0000
     94  H61        1.7590    0.0510   12.2690 H      17  RA17        0.0000
     95  H62        3.0870    0.0720   13.4080 H      17  RA17        0.0000
     96  H2         1.3920   -4.2490   10.8640 H      17  RA17        0.0000
     97  H3'        7.7630   -4.7440   13.4670 H      17  RA17        0.0000
     98  H2'        6.4170   -5.9260   11.6150 H      17  RA17        0.0000
     99 H2''        5.2000   -7.3520   11.9440 H      17  RA17        0.0000
    100  P          9.6610   -5.6890   11.8670 P.3    18  RC18        0.0000
    101  OP1       10.9410   -6.4350   11.7830 O.2    18  RC18        0.0000
    102  OP2        9.6590   -4.2300   12.1720 O.3    18  RC18        0.0000
    103  O5'        8.9360   -5.9020   10.4750 O.3    18  RC18        0.0000
    104  C5'        8.6570   -4.8040    9.6370 C.3    18  RC18        0.0000
    105  C4'        7.4350   -5.0680    8.8060 C.3    18  RC18        0.0000
    106  O4'        6.2490   -4.8580    9.6150 O.3    18  RC18        0.0000
    107  C3'        7.2670   -4.1270    7.6310 C.3    18  RC18        0.0000
    108  O3'        8.0060   -4.5510    6.5030 O.3    18  RC18        0.0000
    109  C2'        5.7590   -4.0930    7.4300 C.3    18  RC18        0.0000
    110  O2'        5.3140   -5.2530    6.7460 O.3    18  RC18        0.0000
    111  C1'        5.2690   -4.1700    8.8740 C.3    18  RC18        0.0000
    112  N1         5.1050   -2.8310    9.4860 N.ar   18  RC18        0.0000
    113  C2         4.0430   -2.0170    9.0940 C.ar   18  RC18        0.0000
    114  O2         3.2560   -2.4340    8.2310 O.2    18  RC18        0.0000
    115  N3         3.8990   -0.7990    9.6670 N.ar   18  RC18        0.0000
    116  C4         4.7640   -0.3880   10.5940 C.ar   18  RC18        0.0000
    117  N4         4.5820    0.8200   11.1290 N.pl3  18  RC18        0.0000
    118  C5         5.8550   -1.2000   11.0150 C.ar   18  RC18        0.0000
    119  C6         5.9810   -2.4000   10.4440 C.ar   18  RC18        0.0000
    120  H5'        9.5100   -4.6160    8.9710 H      18  RC18        0.0000
    121 H5''        8.4750   -3.9060   10.2350 H      18  RC18        0.0000
    122  H4'        7.3950   -6.1270    8.5330 H      18  RC18        0.0000
    123  H1'        4.2980   -4.6430    9.0220 H      18  RC18        0.0000
    124  H6         6.7960   -3.0530   10.7430 H      18  RC18        0.0000
    125  H5         6.5740   -0.8710   11.7770 H      18  RC18        0.0000
    126  H41        3.7990    1.3600   10.8030 H      18  RC18        0.0000
    127  H42        5.2190    1.1580   11.8330 H      18  RC18        0.0000
    128  H3'        7.6210   -3.1290    7.9040 H      18  RC18        0.0000
    129  H2'        5.5210   -3.5960    6.4930 H      18  RC18        0.0000
    130 H2''        4.3310   -5.0470    6.8190 H      18  RC18        0.0000
    131  P          8.9810   -3.5190    5.7620 P.3    19  RA19        0.0000
    132  OP1        9.9760   -4.2770    4.9650 O.2    19  RA19        0.0000
    133  OP2        9.4770   -2.5460    6.7640 O.3    19  RA19        0.0000
    134  O5'        7.9920   -2.7800    4.7670 O.3    19  RA19        0.0000
    135  C5'        7.0000   -3.5150    4.0670 C.3    19  RA19        0.0000
    136  C4'        5.9570   -2.5920    3.5020 C.3    19  RA19        0.0000
    137  O4'        5.0110   -2.2260    4.5410 O.3    19  RA19        0.0000
    138  C3'        6.4840   -1.2580    3.0040 C.3    19  RA19        0.0000
    139  O3'        7.0650   -1.3410    1.7120 O.3    19  RA19        0.0000
    140  C2'        5.2510   -0.3690    3.0850 C.3    19  RA19        0.0000
    141  O2'        4.3750   -0.6320    1.9990 O.3    19  RA19        0.0000
    142  C1'        4.5950   -0.8890    4.3630 C.3    19  RA19        0.0000
    143  N9         4.9930   -0.1170    5.5570 N.ar   19  RA19        0.0000
    144  C8         5.9320   -0.4560    6.4990 C.ar   19  RA19        0.0000
    145  N7         6.0640    0.4350    7.4550 N.ar   19  RA19        0.0000
    146  C5         5.1430    1.4260    7.1290 C.ar   19  RA19        0.0000
    147  C6         4.7870    2.6460    7.7420 C.3    19  RA19        0.0000
    148  N6         5.3290    3.1030    8.8740 N.3    19  RA19        0.0000
    149  N1         3.8360    3.3980    7.1480 N.2    19  RA19        0.0000
    150  C2         3.2780    2.9450    6.0180 C.2    19  RA19        0.0000
    151  N3         3.5270    1.8200    5.3500 N.pl3  19  RA19        0.0000
    152  C4         4.4790    1.0950    5.9590 C.ar   19  RA19        0.0000
    153  H5'        6.5200   -4.2280    4.7480 H      19  RA19        0.0000
    154 H5''        7.4540   -4.0660    3.2410 H      19  RA19        0.0000
    155  H4'        5.3530   -3.1260    2.7600 H      19  RA19        0.0000
    156  H1'        3.5060   -0.8490    4.3750 H      19  RA19        0.0000
    157  H8         6.5140   -1.3530    6.3890 H      19  RA19        0.0000
    158  H61        5.0310    3.9820    9.2600 H      19  RA19        0.0000
    159  H62        6.0440    2.5610    9.3460 H      19  RA19        0.0000
    160  H2         2.5130    3.5200    5.5250 H      19  RA19        0.0000
    161  H3'        7.2470   -0.8860    3.6880 H      19  RA19        0.0000
    162  H2'        5.4340    0.5660    2.5620 H      19  RA19        0.0000
    163 H2''        3.6350   -0.0260    2.3120 H      19  RA19        0.0000
    164  P          8.3070   -0.3970    1.3160 P.3    20  RU20        0.0000
    165  OP1        8.7690   -0.8080   -0.0340 O.2    20  RU20        0.0000
    166  OP2        9.2670   -0.3410    2.4470 O.3    20  RU20        0.0000
    167  O5'        7.6410    1.0370    1.1590 O.3    20  RU20        0.0000
    168  C5'        6.5630    1.2280    0.2590 C.3    20  RU20        0.0000
    169  C4'        5.9510    2.5950    0.4140 C.3    20  RU20        0.0000
    170  O4'        5.2520    2.6970    1.6840 O.3    20  RU20        0.0000
    171  C3'        6.9290    3.7560    0.4450 C.3    20  RU20        0.0000
    172  O3'        7.3950    4.1150   -0.8460 O.3    20  RU20        0.0000
    173  C2'        6.1170    4.8420    1.1390 C.3    20  RU20        0.0000
    174  O2'        5.1800    5.4120    0.2350 O.3    20  RU20        0.0000
    175  C1'        5.3430    4.0200    2.1740 C.3    20  RU20        0.0000
    176  N1         6.0160    4.0000    3.4940 N.ar   20  RU20        0.0000
    177  C2         5.7680    5.0460    4.3690 C.ar   20  RU20        0.0000
    178  O2         5.0350    5.9830    4.1090 O.2    20  RU20        0.0000
    179  N3         6.4200    4.9720    5.5700 N.ar   20  RU20        0.0000
    180  C4         7.2710    3.9700    5.9810 C.ar   20  RU20        0.0000
    181  O4         7.7820    4.0430    7.0940 O.2    20  RU20        0.0000
    182  C5         7.4750    2.9270    5.0260 C.ar   20  RU20        0.0000
    183  C6         6.8550    2.9770    3.8450 C.ar   20  RU20        0.0000
    184  H5'        5.7900    0.4660    0.4410 H      20  RU20        0.0000
    185 H5''        6.9120    1.1360   -0.7710 H      20  RU20        0.0000
    186  H4'        5.1660    2.7360   -0.3410 H      20  RU20        0.0000
    187  H1'        4.3380    4.3880    2.3940 H      20  RU20        0.0000
    188  H6         7.0640    2.1880    3.1210 H      20  RU20        0.0000
    189  H5         8.1340    2.0970    5.2650 H      20  RU20        0.0000
    190  H3         6.2510    5.7880    6.2760 H      20  RU20        0.0000
    191  H3'        7.7900    3.4960    1.0610 H      20  RU20        0.0000
    192  H2'        6.6210    5.7990    1.0440 H      20  RU20        0.0000
    193 H2''        4.7240    5.9980    0.9150 H      20  RU20        0.0000
    194  P          8.9160    4.5930   -1.0640 P.3    21  RA21        0.0000
    195  OP1        9.0750    4.9490   -2.4900 O.2    21  RA21        0.0000
    196  OP2        9.8470    3.6150   -0.4580 O.3    21  RA21        0.0000
    197  O5'        9.0120    5.9360   -0.2160 O.3    21  RA21        0.0000
    198  C5'        8.2660    7.0810   -0.5860 C.3    21  RA21        0.0000
    199  C4'        8.5040    8.2300    0.3620 C.3    21  RA21        0.0000
    200  O4'        7.9460    7.9390    1.6610 O.3    21  RA21        0.0000
    201  C3'        9.9540    8.5800    0.6590 C.3    21  RA21        0.0000
    202  O3'       10.5520    9.3360   -0.3800 O.3    21  RA21        0.0000
    203  C2'        9.8630    9.3280    1.9910 C.3    21  RA21        0.0000
    204  O2'        9.6460   10.7180    1.7910 O.3    21  RA21        0.0000
    205  C1'        8.6170    8.7030    2.6410 C.3    21  RA21        0.0000
    206  N9         8.9390    7.8480    3.7980 N.ar   21  RA21        0.0000
    207  C8         9.3990    6.5560    3.8310 C.ar   21  RA21        0.0000
    208  N7         9.5890    6.0970    5.0470 N.ar   21  RA21        0.0000
    209  C5         9.2290    7.1660    5.8590 C.ar   21  RA21        0.0000
    210  C6         9.2000    7.3420    7.2520 C.3    21  RA21        0.0000
    211  N6         9.5560    6.3980    8.1200 N.3    21  RA21        0.0000
    212  N1         8.7940    8.5390    7.7330 N.2    21  RA21        0.0000
    213  C2         8.4310    9.5020    6.8770 C.2    21  RA21        0.0000
    214  N3         8.4130    9.4500    5.5490 N.pl3  21  RA21        0.0000
    215  C4         8.8290    8.2470    5.1030 C.ar   21  RA21        0.0000
    216  H5'        7.1920    6.8390   -0.5910 H      21  RA21        0.0000
    217 H5''        8.5550    7.4130   -1.5850 H      21  RA21        0.0000
    218  H4'        7.9500    9.1130    0.0140 H      21  RA21        0.0000
    219  H1'        7.9270    9.4480    3.0470 H      21  RA21        0.0000
    220  H8         9.6170    6.0320    2.9190 H      21  RA21        0.0000
    221  H61        9.5150    6.5810    9.1150 H      21  RA21        0.0000
    222  H62        9.8690    5.4940    7.7900 H      21  RA21        0.0000
    223  H2         8.1050   10.4550    7.2340 H      21  RA21        0.0000
    224  H3'       10.5330    7.6650    0.7970 H      21  RA21        0.0000
    225  H2'       10.8540    9.6900    2.2730 H      21  RA21        0.0000
    226 H2''        9.5710   10.9420    2.7740 H      21  RA21        0.0000
    227  P         11.7800    8.7240   -1.2160 P.3    22  RU22        0.0000
    228  OP1       12.0860    9.6320   -2.3470 O.2    22  RU22        0.0000
    229  OP2       11.5210    7.2880   -1.4940 O.3    22  RU22        0.0000
    230  O5'       12.9910    8.8440   -0.1920 O.3    22  RU22        0.0000
    231  C5'       14.1680    8.0490   -0.3190 C.3    22  RU22        0.0000
    232  C4'       14.7590    7.7620    1.0410 C.3    22  RU22        0.0000
    233  O4'       15.1450    9.0250    1.6540 O.3    22  RU22        0.0000
    234  C3'       13.7880    7.0960    2.0110 C.3    22  RU22        0.0000
    235  O3'       14.4960    6.2650    2.9200 O.3    22  RU22        0.0000
    236  C2'       13.2110    8.2840    2.7730 C.3    22  RU22        0.0000
    237  O2'       12.7000    7.9760    4.0480 O.3    22  RU22        0.0000
    238  C1'       14.4140    9.2210    2.8520 C.3    22  RU22        0.0000
    239  N1        14.0130   10.6340    2.9210 N.ar   22  RU22        0.0000
    240  C2        14.2230   11.3530    4.0860 C.ar   22  RU22        0.0000
    241  O2        14.7500   10.9140    5.0960 O.2    22  RU22        0.0000
    242  N3        13.7930   12.6450    4.0300 N.ar   22  RU22        0.0000
    243  C4        13.1840   13.2800    2.9800 C.ar   22  RU22        0.0000
    244  O4        12.8600   14.4570    3.1150 O.2    22  RU22        0.0000
    245  C5        12.9930   12.4720    1.8230 C.ar   22  RU22        0.0000
    246  C6        13.4010   11.2070    1.8350 C.ar   22  RU22        0.0000
    247  H5'       14.9070    8.5800   -0.9270 H      22  RU22        0.0000
    248 H5''       13.9250    7.1000   -0.8010 H      22  RU22        0.0000
    249  H4'       15.6960    7.2170    0.9260 H      22  RU22        0.0000
    250  H1'       15.0870    9.0880    3.7000 H      22  RU22        0.0000
    251  H6        13.2000   10.5910    0.9560 H      22  RU22        0.0000
    252  H5        12.5180   12.8910    0.9420 H      22  RU22        0.0000
    253  H3        13.9530   13.2530    4.9360 H      22  RU22        0.0000
    254  H3'       12.9940    6.6020    1.4500 H      22  RU22        0.0000
    255  H2'       12.1300    8.3230    2.6260 H      22  RU22        0.0000
    256 H2''       12.4380    8.9340    4.2660 H      22  RU22        0.0000
    257  P         14.8770    4.7490    2.5530 P.3    23  RA23        0.0000
    258  OP1       14.1600    4.3760    1.3070 O.2    23  RA23        0.0000
    259  OP2       14.7710    3.9030    3.7610 O.3    23  RA23        0.0000
    260  O5'       16.4280    4.8480    2.2230 O.3    23  RA23        0.0000
    261  C5'       17.3020    5.5410    3.0990 C.3    23  RA23        0.0000
    262  C4'       18.5720    5.9350    2.3980 C.3    23  RA23        0.0000
    263  O4'       18.2390    6.5770    1.1500 O.3    23  RA23        0.0000
    264  C3'       19.4380    6.9510    3.1240 C.3    23  RA23        0.0000
    265  O3'       20.2780    6.3420    4.0890 O.3    23  RA23        0.0000
    266  C2'       20.2130    7.6140    1.9880 C.3    23  RA23        0.0000
    267  O2'       21.3560    6.8470    1.6450 O.3    23  RA23        0.0000
    268  C1'       19.2140    7.5350    0.8260 C.3    23  RA23        0.0000
    269  N9        18.5500    8.8190    0.5190 N.ar   23  RA23        0.0000
    270  C8        18.2450    9.2410   -0.7510 C.ar   23  RA23        0.0000
    271  N7        17.6550   10.4050   -0.7900 N.ar   23  RA23        0.0000
    272  C5        17.5630   10.7750    0.5390 C.ar   23  RA23        0.0000
    273  C6        17.0330   11.9170    1.1360 C.3    23  RA23        0.0000
    274  N6        16.4840   12.9060    0.4280 N.3    23  RA23        0.0000
    275  N1        17.0830   12.0050    2.4840 N.2    23  RA23        0.0000
    276  C2        17.6290   10.9990    3.1720 C.2    23  RA23        0.0000
    277  N3        18.1580    9.8730    2.7080 N.pl3  23  RA23        0.0000
    278  C4        18.0990    9.8150    1.3680 C.ar   23  RA23        0.0000
    279  H5'       17.5480    4.9010    3.9570 H      23  RA23        0.0000
    280 H5''       16.8240    6.4520    3.4640 H      23  RA23        0.0000
    281  H4'       19.1260    5.0370    2.1090 H      23  RA23        0.0000
    282  H1'       19.6940    7.2570   -0.1170 H      23  RA23        0.0000
    283  H8        18.4490    8.6060   -1.5960 H      23  RA23        0.0000
    284  H61       16.1080   13.7240    0.9100 H      23  RA23        0.0000
    285  H62       16.4370   12.8530   -0.5760 H      23  RA23        0.0000
    286  H2        17.6810   11.0380    4.2430 H      23  RA23        0.0000
    287  H3'       18.8030    7.6940    3.6120 H      23  RA23        0.0000
    288  H2'       20.9550    8.2980    2.4020 H      23  RA23        0.0000
    289 H2''       21.6380    7.4220    0.8680 H      23  RA23        0.0000
    290  P         20.0020    6.4760    5.6700 P.3    24  RA24        0.0000
    291  OP1       20.9260    5.5070    6.3210 O.3    24  RA24        0.0000
    292  OP2       18.5620    6.3620    5.9460 O.2    24  RA24        0.0000
    293  O5'       20.5470    7.9290    6.0630 O.3    24  RA24        0.0000
    294  C5'       19.8360    9.1170    5.7560 C.3    24  RA24        0.0000
    295  C4'       19.5890    9.9290    7.0000 C.3    24  RA24        0.0000
    296  O4'       18.6330    9.2380    7.8330 O.3    24  RA24        0.0000
    297  C3'       20.7880   10.1390    7.9120 C.3    24  RA24        0.0000
    298  O3'       21.6150   11.2090    7.4790 O.3    24  RA24        0.0000
    299  C2'       20.1380   10.3910    9.2710 C.3    24  RA24        0.0000
    300  O2'       19.6960   11.7350    9.3700 O.3    24  RA24        0.0000
    301  C1'       18.8860    9.5220    9.1880 C.3    24  RA24        0.0000
    302  N9        18.9310    8.2720    9.9720 N.ar   24  RA24        0.0000
    303  C8        18.8840    6.9670    9.5210 C.ar   24  RA24        0.0000
    304  N7        18.8780    6.0780   10.4890 N.ar   24  RA24        0.0000
    305  C5        18.9090    6.8400   11.6500 C.ar   24  RA24        0.0000
    306  C6        18.9240    6.5030   13.0160 C.3    24  RA24        0.0000
    307  N6        18.8930    5.2610   13.4830 N.3    24  RA24        0.0000
    308  N1        18.9500    7.5140   13.9190 N.2    24  RA24        0.0000
    309  C2        18.9640    8.7800   13.4710 C.2    24  RA24        0.0000
    310  N3        18.9560    9.2200   12.2170 N.pl3  24  RA24        0.0000
    311  C4        18.9240    8.1930   11.3450 C.ar   24  RA24        0.0000
    312  H5'       18.8730    8.8630    5.2960 H      24  RA24        0.0000
    313 H5''       20.4110    9.7290    5.0580 H      24  RA24        0.0000
    314  H4'       19.0960   10.8680    6.7330 H      24  RA24        0.0000
    315  H1'       18.0300   10.0640    9.6080 H      24  RA24        0.0000
    316  H8        18.9050    6.7570    8.4690 H      24  RA24        0.0000
    317  H61       18.9060    5.0850   14.4750 H      24  RA24        0.0000
    318  H62       18.8560    4.4760   12.8380 H      24  RA24        0.0000
    319  H2        18.9850    9.5980   14.1670 H      24  RA24        0.0000
    320  H3'       21.3800    9.2240    7.9570 H      24  RA24        0.0000
    321  H2'       20.9030   10.6880    9.9910 H      24  RA24        0.0000
    322 H2''       19.2540   11.6470   10.2650 H      24  RA24        0.0000
    323  P         23.1450   10.9720    7.0220 P.3    25  RU25        0.0000
    324  OP1       23.5610    9.6370    7.5040 O.3    25  RU25        0.0000
    325  OP2       23.9400   12.1740    7.4150 O.2    25  RU25        0.0000
    326  O5'       23.1030   11.1210    5.4400 O.3    25  RU25        0.0000
    327  C5'       23.1460   10.0090    4.5640 C.3    25  RU25        0.0000
    328  C4'       22.6280   10.4080    3.2040 C.3    25  RU25        0.0000
    329  O4'       21.2290   10.7990    3.3160 O.3    25  RU25        0.0000
    330  C3'       23.2860   11.6230    2.5620 C.3    25  RU25        0.0000
    331  O3'       24.5210   11.3430    1.9270 O.3    25  RU25        0.0000
    332  C2'       22.2150   12.0930    1.5940 C.3    25  RU25        0.0000
    333  O2'       22.1540   11.2150    0.4840 O.3    25  RU25        0.0000
    334  C1'       20.9580   11.8620    2.4260 C.3    25  RU25        0.0000
    335  N1        20.5690   13.0670    3.2030 N.ar   25  RU25        0.0000
    336  C2        19.9930   14.1210    2.5040 C.ar   25  RU25        0.0000
    337  O2        19.7950   14.1360    1.2980 O.2    25  RU25        0.0000
    338  N3        19.6400   15.1980    3.2660 N.ar   25  RU25        0.0000
    339  C4        19.7910   15.3350    4.6220 C.ar   25  RU25        0.0000
    340  O4        19.4090   16.3820    5.1280 O.2    25  RU25        0.0000
    341  C5        20.3900   14.2130    5.2840 C.ar   25  RU25        0.0000
    342  C6        20.7420   13.1350    4.5710 C.ar   25  RU25        0.0000
    343  H5'       22.5270    9.1990    4.9590 H      25  RU25        0.0000
    344 H5''       24.1740    9.6510    4.4620 H      25  RU25        0.0000
    345  H4'       22.6150    9.5360    2.5450 H      25  RU25        0.0000
    346  H1'       20.0630   11.6220    1.8450 H      25  RU25        0.0000
    347  H6        21.2180   12.3060    5.0870 H      25  RU25        0.0000
    348  H5        20.5550   14.2420    6.3540 H      25  RU25        0.0000
    349  H3        19.1860   16.0460    2.7380 H      25  RU25        0.0000
    350  H3'       23.4570   12.3870    3.3200 H      25  RU25        0.0000
    351  H2'       22.6330   12.8100    0.8950 H      25  RU25        0.0000
    352 H2''       21.3480   11.6310    0.0540 H      25  RU25        0.0000
    353  P         25.5960   12.5270    1.6940 P.3    26  RC26        0.0000
    354  OP1       26.8310   11.8710    1.2060 O.2    26  RC26        0.0000
    355  OP2       25.6640   13.3570    2.9240 O.3    26  RC26        0.0000
    356  O5'       24.9770   13.4320    0.5310 O.3    26  RC26        0.0000
    357  C5'       24.9450   12.9870   -0.8170 C.3    26  RC26        0.0000
    358  C4'       24.3620   14.0290   -1.7550 C.3    26  RC26        0.0000
    359  O4'       22.9960   14.3510   -1.3810 O.3    26  RC26        0.0000
    360  C3'       25.0520   15.3870   -1.7930 C.3    26  RC26        0.0000
    361  O3'       26.2340   15.3870   -2.5580 O.3    26  RC26        0.0000
    362  C2'       23.9660   16.2880   -2.3620 C.3    26  RC26        0.0000
    363  O2'       23.8350   16.1040   -3.7680 O.3    26  RC26        0.0000
    364  C1'       22.7260   15.7100   -1.6840 C.3    26  RC26        0.0000
    365  N1        22.4390   16.4190   -0.4220 N.ar   26  RC26        0.0000
    366  C2        21.8160   17.6730   -0.4860 C.ar   26  RC26        0.0000
    367  O2        21.5160   18.1530   -1.6020 O.2    26  RC26        0.0000
    368  N3        21.5590   18.3150    0.6810 N.ar   26  RC26        0.0000
    369  C4        21.9020   17.7550    1.8460 C.ar   26  RC26        0.0000
    370  N4        21.6320   18.4250    2.9670 N.pl3  26  RC26        0.0000
    371  C5        22.5420   16.4830    1.9300 C.ar   26  RC26        0.0000
    372  C6        22.7920   15.8560    0.7770 C.ar   26  RC26        0.0000
    373  H5'       24.3400   12.0680   -0.8900 H      26  RC26        0.0000
    374 H5''       25.9560   12.7710   -1.1660 H      26  RC26        0.0000
    375  H4'       24.2790   13.6050   -2.7640 H      26  RC26        0.0000
    376  H1'       21.7900   15.7770   -2.2430 H      26  RC26        0.0000
    377  H6        23.2790   14.8900    0.7820 H      26  RC26        0.0000
    378  H5        22.8220   16.0260    2.8840 H      26  RC26        0.0000
    379  H41       21.1780   19.3230    2.8680 H      26  RC26        0.0000
    380  H42       21.8780   18.0360    3.8590 H      26  RC26        0.0000
    381  H3'       25.2940   15.7020   -0.7780 H      26  RC26        0.0000
    382  H2'       24.3900   17.2450   -2.6490 H      26  RC26        0.0000
    383 H2''       23.0340   16.7050   -3.8740 H      26  RC26        0.0000
    384  P         27.4240   16.3880   -2.1660 P.3    27  RG27        0.0000
    385  OP1       28.5370   16.0570   -3.0910 O.2    27  RG27        0.0000
    386  OP2       27.6320   16.3670   -0.6960 O.3    27  RG27        0.0000
    387  O5'       26.8240   17.8340   -2.4900 O.3    27  RG27        0.0000
    388  C5'       26.4990   18.1940   -3.8200 C.3    27  RG27        0.0000
    389  C4'       26.0770   19.6370   -3.9020 C.3    27  RG27        0.0000
    390  O4'       24.8050   19.8210   -3.2300 O.3    27  RG27        0.0000
    391  C3'       26.9930   20.6220   -3.2100 C.3    27  RG27        0.0000
    392  O3'       28.1710   20.8920   -3.9590 O.3    27  RG27        0.0000
    393  C2'       26.0690   21.8190   -2.9920 C.3    27  RG27        0.0000
    394  O2'       25.8850   22.5500   -4.1960 O.3    27  RG27        0.0000
    395  C1'       24.7470   21.1170   -2.6690 C.3    27  RG27        0.0000
    396  N9        24.5160   21.0030   -1.2170 N.ar   27  RG27        0.0000
    397  C8        24.6530   19.8860   -0.4320 C.ar   27  RG27        0.0000
    398  N7        24.3800   20.1110    0.8290 N.ar   27  RG27        0.0000
    399  C5        24.0370   21.4580    0.8790 C.ar   27  RG27        0.0000
    400  C6        23.6490   22.2790    1.9820 C.ar   27  RG27        0.0000
    401  O6        23.5080   21.9860    3.1800 O.2    27  RG27        0.0000
    402  N1        23.4010   23.5820    1.5760 N.ar   27  RG27        0.0000
    403  C2        23.5060   24.0410    0.2920 C.ar   27  RG27        0.0000
    404  N2        23.2130   25.3320    0.1400 N.pl3  27  RG27        0.0000
    405  N3        23.8660   23.2980   -0.7490 N.ar   27  RG27        0.0000
    406  C4        24.1190   22.0230   -0.3820 C.ar   27  RG27        0.0000
    407  H5'       25.6800   17.5600   -4.1860 H      27  RG27        0.0000
    408 H5''       27.3670   18.0590   -4.4700 H      27  RG27        0.0000
    409  H4'       25.8760   19.9040   -4.9460 H      27  RG27        0.0000
    410  H1'       23.8550   21.6330   -3.0380 H      27  RG27        0.0000
    411  H8        24.9550   18.9480   -0.8610 H      27  RG27        0.0000
    412  H1        23.1220   24.2400    2.2810 H      27  RG27        0.0000
    413  H21       22.9180   25.9970    0.8370 H      27  RG27        0.0000
    414  H22       23.2760   25.6970   -0.8120 H      27  RG27        0.0000
    415  H3'       27.3030   20.2250   -2.2440 H      27  RG27        0.0000
    416  H2'       26.6510   22.6830   -2.6860 H      27  RG27        0.0000
    417 H2''       25.2040   23.1920   -3.8300 H      27  RG27        0.0000
    418  P         29.5030   21.4040   -3.2100 P.3    28  RC28        0.0000
    419  OP1       30.5840   21.6040   -4.2010 O.2    28  RC28        0.0000
    420  OP2       29.8230   20.5270   -2.0400 O.3    28  RC28        0.0000
    421  O5'       29.0380   22.8300   -2.7010 O.3    28  RC28        0.0000
    422  C5'       29.4110   23.3220   -1.4300 C.3    28  RC28        0.0000
    423  C4'       28.7570   24.6530   -1.1900 C.3    28  RC28        0.0000
    424  O4'       27.3620   24.4560   -0.8280 O.3    28  RC28        0.0000
    425  C3'       29.3300   25.4460   -0.0330 C.3    28  RC28        0.0000
    426  O3'       30.5260   26.1240   -0.3820 O.3    28  RC28        0.0000
    427  C2'       28.1550   26.3350    0.3610 C.3    28  RC28        0.0000
    428  O2'       27.9610   27.3760   -0.5780 O.3    28  RC28        0.0000
    429  C1'       26.9950   25.3600    0.1940 C.3    28  RC28        0.0000
    430  N1        26.7690   24.5920    1.4380 N.ar   28  RC28        0.0000
    431  C2        26.1390   25.2270    2.5200 C.ar   28  RC28        0.0000
    432  O2        25.7660   26.4110    2.4020 O.2    28  RC28        0.0000
    433  N3        25.9430   24.5310    3.6720 N.ar   28  RC28        0.0000
    434  C4        26.3560   23.2630    3.7700 C.ar   28  RC28        0.0000
    435  N4        26.1390   22.6190    4.9210 N.pl3  28  RC28        0.0000
    436  C5        26.9950   22.5890    2.6820 C.ar   28  RC28        0.0000
    437  C6        27.1850   23.2850    1.5530 C.ar   28  RC28        0.0000
    438  H5'       30.4970   23.4410   -1.3810 H      28  RC28        0.0000
    439 H5''       29.0960   22.6250   -0.6480 H      28  RC28        0.0000
    440  H4'       28.7170   25.2210   -2.1260 H      28  RC28        0.0000
    441  H1'       26.0150   25.7870   -0.0310 H      28  RC28        0.0000
    442  H6        27.6760   22.8160    0.7090 H      28  RC28        0.0000
    443  H5        27.3230   21.5450    2.7500 H      28  RC28        0.0000
    444  H41       25.6880   23.1300    5.6570 H      28  RC28        0.0000
    445  H42       26.4270   21.6590    5.0190 H      28  RC28        0.0000
    446  H3'       29.5690   24.7750    0.7920 H      28  RC28        0.0000
    447  H2'       28.4950   27.1260    1.0210 H      28  RC28        0.0000
    448 H2''       27.1180   27.7410   -0.1750 H      28  RC28        0.0000
    449  P         31.5820   26.5290    0.7500 P.3    29  RG29        0.0000
    450  OP1       32.8310   27.0240    0.1210 O.2    29  RG29        0.0000
    451  OP2       31.6650   25.4320    1.7450 O.3    29  RG29        0.0000
    452  O5'       30.8530   27.7410    1.4820 O.3    29  RG29        0.0000
    453  C5'       30.5990   28.9570    0.7950 C.3    29  RG29        0.0000
    454  C4'       29.9040   29.9260    1.7110 C.3    29  RG29        0.0000
    455  O4'       28.6440   29.3520    2.1520 O.3    29  RG29        0.0000
    456  C3'       30.6450   30.2310    3.0010 C.3    29  RG29        0.0000
    457  O3'       31.6550   31.2100    2.8310 O.3    29  RG29        0.0000
    458  C2'       29.5230   30.6540    3.9320 C.3    29  RG29        0.0000
    459  O2'       29.1070   31.9760    3.6250 O.3    29  RG29        0.0000
    460  C1'       28.4120   29.6880    3.5050 C.3    29  RG29        0.0000
    461  N9        28.4180   28.4400    4.2950 N.ar   29  RG29        0.0000
    462  C8        28.8860   27.2170    3.8890 C.ar   29  RG29        0.0000
    463  N7        28.7610   26.2880    4.7990 N.ar   29  RG29        0.0000
    464  C5        28.1660   26.9320    5.8770 C.ar   29  RG29        0.0000
    465  C6        27.7820   26.4360    7.1540 C.ar   29  RG29        0.0000
    466  O6        27.9060   25.2870    7.5910 O.2    29  RG29        0.0000
    467  N1        27.2190   27.4250    7.9600 N.ar   29  RG29        0.0000
    468  C2        27.0520   28.7360    7.5640 C.ar   29  RG29        0.0000
    469  N2        26.5030   29.5660    8.4610 N.pl3  29  RG29        0.0000
    470  N3        27.4070   29.2100    6.3780 N.ar   29  RG29        0.0000
    471  C4        27.9560   28.2640    5.5860 C.ar   29  RG29        0.0000
    472  H5'       29.9650   28.7650   -0.0750 H      29  RG29        0.0000
    473 H5''       31.5390   29.4000    0.4580 H      29  RG29        0.0000
    474  H4'       29.6150   30.8210    1.1520 H      29  RG29        0.0000
    475  H1'       27.3930   30.0640    3.6170 H      29  RG29        0.0000
    476  H8        29.3040   27.0920    2.9040 H      29  RG29        0.0000
    477  H1        26.9210   27.1730    8.8710 H      29  RG29        0.0000
    478  H21       26.1890   29.3260    9.3920 H      29  RG29        0.0000
    479  H22       26.3710   30.5220    8.1720 H      29  RG29        0.0000
    480  H3'       31.1120   29.3200    3.3800 H      29  RG29        0.0000
    481  H2'       29.9310   31.1070    4.8290 H      29  RG29        0.0000
    482 H2''       28.3300   31.9910    4.2650 H      29  RG29        0.0000
    483  P         33.1190   30.9970    3.4490 P.3    30  RU30        0.0000
    484  OP1       33.9990   32.0270    2.8300 O.2    30  RU30        0.0000
    485  OP2       33.5140   29.5620    3.4020 O.3    30  RU30        0.0000
    486  O5'       32.9220   31.3450    4.9880 O.3    30  RU30        0.0000
    487  C5'       32.6010   32.6670    5.3880 C.3    30  RU30        0.0000
    488  C4'       32.2110   32.6980    6.8350 C.3    30  RU30        0.0000
    489  O4'       30.9590   31.9790    7.0280 O.3    30  RU30        0.0000
    490  C3'       33.1690   31.9960    7.7930 C.3    30  RU30        0.0000
    491  O3'       34.3410   32.7440    8.0820 O.3    30  RU30        0.0000
    492  C2'       32.2750   31.7500    8.9940 C.3    30  RU30        0.0000
    493  O2'       32.0580   32.9640    9.6990 O.3    30  RU30        0.0000
    494  C1'       30.9690   31.3480    8.3020 C.3    30  RU30        0.0000
    495  N1        30.9150   29.8730    8.1360 N.ar   30  RU30        0.0000
    496  C2        30.5440   29.1220    9.2490 C.ar   30  RU30        0.0000
    497  O2        30.2230   29.6140   10.3180 O.2    30  RU30        0.0000
    498  N3        30.5420   27.7600    9.0660 N.ar   30  RU30        0.0000
    499  C4        30.8870   27.0850    7.9090 C.ar   30  RU30        0.0000
    500  O4        30.8360   25.8580    7.8980 O.2    30  RU30        0.0000
    501  C5        31.2770   27.9230    6.8050 C.ar   30  RU30        0.0000
    502  C6        31.2810   29.2470    6.9590 C.ar   30  RU30        0.0000
    503  H5'       31.7690   33.0440    4.7800 H      30  RU30        0.0000
    504 H5''       33.4650   33.3210    5.2510 H      30  RU30        0.0000
    505  H4'       31.9800   33.7270    7.1370 H      30  RU30        0.0000
    506  H1'       30.0390   31.5910    8.8240 H      30  RU30        0.0000
    507  H6        31.6300   29.8630    6.1270 H      30  RU30        0.0000
    508  H5        31.5620   27.4720    5.8650 H      30  RU30        0.0000
    509  H3        30.2390   27.1470    9.9160 H      30  RU30        0.0000
    510  H3'       33.4790   31.0460    7.3640 H      30  RU30        0.0000
    511  H2'       32.8730   31.4870    9.8590 H      30  RU30        0.0000
    512 H2''       31.3880   32.5850   10.3490 H      30  RU30        0.0000
    513  P         35.7360   32.0040    8.3800 P.3    31  RG31        0.0000
    514  OP1       36.8110   33.0290    8.4170 O.3    31  RG31        0.0000
    515  OP2       35.9070   30.8270    7.4870 O.2    31  RG31        0.0000
    516  O5'       35.5860   31.4700    9.8680 O.3    31  RG31        0.0000
    517  C5'       35.4100   32.3500   10.9610 C.3    31  RG31        0.0000
    518  C4'       34.7730   31.6360   12.1290 C.3    31  RG31        0.0000
    519  O4'       33.5350   31.0040   11.7130 O.3    31  RG31        0.0000
    520  C3'       35.5590   30.4870   12.7460 C.3    31  RG31        0.0000
    521  O3'       36.6230   30.8940   13.5870 O.3    31  RG31        0.0000
    522  C2'       34.4690   29.7260   13.4760 C.3    31  RG31        0.0000
    523  O2'       34.0700   30.4320   14.6430 O.3    31  RG31        0.0000
    524  C1'       33.3430   29.8040   12.4450 C.3    31  RG31        0.0000
    525  N9        33.4320   28.6410   11.5390 N.ar   31  RG31        0.0000
    526  C8        33.8030   28.5620   10.2160 C.ar   31  RG31        0.0000
    527  N7        33.7980   27.3290    9.7580 N.ar   31  RG31        0.0000
    528  C5        33.4220   26.5530   10.8460 C.ar   31  RG31        0.0000
    529  C6        33.2380   25.1430   10.9810 C.ar   31  RG31        0.0000
    530  O6        33.3850   24.2670   10.1220 O.2    31  RG31        0.0000
    531  N1        32.8520   24.7830   12.2760 N.ar   31  RG31        0.0000
    532  C2        32.6610   25.6600   13.3120 C.ar   31  RG31        0.0000
    533  N2        32.2740   25.1510   14.4980 N.pl3  31  RG31        0.0000
    534  N3        32.8230   26.9680   13.1900 N.ar   31  RG31        0.0000
    535  C4        33.1920   27.3460   11.9460 C.ar   31  RG31        0.0000
    536  H5'       34.7690   33.1900   10.6640 H      31  RG31        0.0000
    537 H5''       36.3760   32.7440   11.2880 H      31  RG31        0.0000
    538  H4'       34.4660   32.3690   12.8840 H      31  RG31        0.0000
    539  H1'       32.3120   29.7690   12.8190 H      31  RG31        0.0000
    540  H8        34.0570   29.4450    9.6640 H      31  RG31        0.0000
    541  H1        32.7050   23.8110   12.4570 H      31  RG31        0.0000
    542  H21       32.1000   24.1710   14.6870 H      31  RG31        0.0000
    543  H22       32.1280   25.7990   15.2440 H      31  RG31        0.0000
    544  H3'       35.9760   29.8650   11.9560 H      31  RG31        0.0000
    545  H2'       34.9030   29.0320   14.1840 H      31  RG31        0.0000
    546 H2''       33.3040   29.8180   14.8730 H      31  RG31        0.0000
    547  P         37.9290   29.9660   13.7500 P.3    32  RG32        0.0000
    548  OP1       38.8840   30.7570   14.5770 O.3    32  RG32        0.0000
    549  OP2       38.3720   29.3650   12.4700 O.2    32  RG32        0.0000
    550  O5'       37.4220   28.7120   14.5860 O.3    32  RG32        0.0000
    551  C5'       36.7860   28.8680   15.8430 C.3    32  RG32        0.0000
    552  C4'       36.4050   27.5270   16.4000 C.3    32  RG32        0.0000
    553  O4'       35.3410   26.9470   15.6060 O.3    32  RG32        0.0000
    554  C3'       37.4970   26.4680   16.3670 C.3    32  RG32        0.0000
    555  O3'       38.4200   26.5950   17.4260 O.3    32  RG32        0.0000
    556  C2'       36.6980   25.1790   16.4110 C.3    32  RG32        0.0000
    557  O2'       36.1690   24.9710   17.7110 O.3    32  RG32        0.0000
    558  C1'       35.5380   25.5460   15.4930 C.3    32  RG32        0.0000
    559  N9        35.8460   25.2230   14.0850 N.ar   32  RG32        0.0000
    560  C8        36.1380   26.1010   13.0690 C.ar   32  RG32        0.0000
    561  N7        36.3570   25.4980   11.9260 N.ar   32  RG32        0.0000
    562  C5        36.2000   24.1470   12.2010 C.ar   32  RG32        0.0000
    563  C6        36.3220   23.0180   11.3430 C.ar   32  RG32        0.0000
    564  O6        36.5960   23.0040   10.1270 O.2    32  RG32        0.0000
    565  N1        36.0890   21.8250   12.0220 N.ar   32  RG32        0.0000
    566  C2        35.7850   21.7530   13.3590 C.ar   32  RG32        0.0000
    567  N2        35.5980   20.5220   13.8460 N.pl3  32  RG32        0.0000
    568  N3        35.6630   22.8040   14.1720 N.ar   32  RG32        0.0000
    569  C4        35.8950   23.9630   13.5330 C.ar   32  RG32        0.0000
    570  H5'       35.8850   29.4810   15.7280 H      32  RG32        0.0000
    571 H5''       37.4610   29.3600   16.5470 H      32  RG32        0.0000
    572  H4'       35.9650   27.6520   17.3970 H      32  RG32        0.0000
    573  H1'       34.5920   25.0320   15.6810 H      32  RG32        0.0000
    574  H8        36.1680   27.1580   13.2490 H      32  RG32        0.0000
    575  H1        36.1460   20.9770   11.5090 H      32  RG32        0.0000
    576  H21       35.6440   19.6490   13.3410 H      32  RG32        0.0000
    577  H22       35.3650   20.4570   14.8300 H      32  RG32        0.0000
    578  H3'       38.0390   26.5320   15.4230 H      32  RG32        0.0000
    579  H2'       37.3470   24.3430   16.6440 H      32  RG32        0.0000
    580 H2''       35.6150   24.1660   17.4770 H      32  RG32        0.0000
    581  P         39.9160   26.0700   17.2400 P.3    33  RA33        0.0000
    582  OP1       40.6980   26.5760   18.3970 O.3    33  RA33        0.0000
    583  OP2       40.4000   26.2950   15.8590 O.2    33  RA33        0.0000
    584  O5'       39.7650   24.4980   17.4030 O.3    33  RA33        0.0000
    585  C5'       39.2440   23.9680   18.6020 C.3    33  RA33        0.0000
    586  C4'       39.1170   22.4760   18.5100 C.3    33  RA33        0.0000
    587  O4'       38.1950   22.1170   17.4500 O.3    33  RA33        0.0000
    588  C3'       40.3830   21.7250   18.1470 C.3    33  RA33        0.0000
    589  O3'       41.2770   21.5850   19.2410 O.3    33  RA33        0.0000
    590  C2'       39.8290   20.4010   17.6350 C.3    33  RA33        0.0000
    591  O2'       39.4180   19.5870   18.7290 O.3    33  RA33        0.0000
    592  C1'       38.5710   20.8670   16.9020 C.3    33  RA33        0.0000
    593  N9        38.7730   21.0000   15.4460 N.ar   33  RA33        0.0000
    594  C8        38.8140   22.1340   14.6720 C.ar   33  RA33        0.0000
    595  N7        38.9920   21.8830   13.3900 N.ar   33  RA33        0.0000
    596  C5        39.0660   20.4990   13.3210 C.ar   33  RA33        0.0000
    597  C6        39.2420   19.6080   12.2490 C.3    33  RA33        0.0000
    598  N6        39.3850   19.9740   10.9670 N.3    33  RA33        0.0000
    599  N1        39.2670   18.2910   12.5460 N.2    33  RA33        0.0000
    600  C2        39.1240   17.8910   13.8140 C.2    33  RA33        0.0000
    601  N3        38.9480   18.6300   14.9050 N.pl3  33  RA33        0.0000
    602  C4        38.9330   19.9430   14.5830 C.ar   33  RA33        0.0000
    603  H5'       38.2550   24.4020   18.8020 H      33  RA33        0.0000
    604 H5''       39.9060   24.2030   19.4400 H      33  RA33        0.0000
    605  H4'       38.6480   22.0860   19.4230 H      33  RA33        0.0000
    606  H1'       37.7300   20.1730   16.9900 H      33  RA33        0.0000
    607  H8        38.7550   23.1050   15.1210 H      33  RA33        0.0000
    608  H61       39.5070   19.2850   10.2520 H      33  RA33        0.0000
    609  H62       39.3690   20.9590   10.7240 H      33  RA33        0.0000
    610  H2        39.1440   16.8440   14.0580 H      33  RA33        0.0000
    611  H3'       40.8980   22.2400   17.3370 H      33  RA33        0.0000
    612  H2'       40.6350   19.6790   17.5320 H      33  RA33        0.0000
    613 H2''       39.0190   18.8530   18.1700 H      33  RA33        0.0000
    614  P         42.8630   21.7010   19.0100 P.3    34  RU34        0.0000
    615  OP1       43.4770   21.6340   20.3640 O.3    34  RU34        0.0000
    616  OP2       43.1920   22.8110   18.0750 O.2    34  RU34        0.0000
    617  O5'       43.2320   20.3740   18.2020 O.3    34  RU34        0.0000
    618  C5'       42.8490   19.0940   18.6840 C.3    34  RU34        0.0000
    619  C4'       43.0890   18.0360   17.6400 C.3    34  RU34        0.0000
    620  O4'       42.3050   18.3540   16.4540 O.3    34  RU34        0.0000
    621  C3'       44.5420   17.9070   17.1770 C.3    34  RU34        0.0000
    622  O3'       44.8930   16.5420   17.0260 O.3    34  RU34        0.0000
    623  C2'       44.5440   18.5610   15.8040 C.3    34  RU34        0.0000
    624  O2'       45.4850   18.0180   14.9110 O.3    34  RU34        0.0000
    625  C1'       43.1260   18.2940   15.3150 C.3    34  RU34        0.0000
    626  N1        42.7170   19.3190   14.3520 N.ar   34  RU34        0.0000
    627  C2        42.6100   18.9270   13.0260 C.ar   34  RU34        0.0000
    628  O2        42.7520   17.7730   12.6710 O.2    34  RU34        0.0000
    629  N3        42.2970   19.9320   12.1430 N.ar   34  RU34        0.0000
    630  C4        42.1130   21.2540   12.4770 C.ar   34  RU34        0.0000
    631  O4        41.8400   22.0460   11.5950 O.2    34  RU34        0.0000
    632  C5        42.2760   21.5840   13.8630 C.ar   34  RU34        0.0000
    633  C6        42.5820   20.6250   14.7400 C.ar   34  RU34        0.0000
    634  H5'       41.7850   19.1030   18.9490 H      34  RU34        0.0000
    635 H5''       43.4330   18.8380   19.5700 H      34  RU34        0.0000
    636  H4'       42.6860   17.0800   17.9830 H      34  RU34        0.0000
    637  H1'       42.9440   17.3450   14.7950 H      34  RU34        0.0000
    638  H6        42.7670   20.9020   15.7700 H      34  RU34        0.0000
    639  H5        42.1500   22.6100   14.1900 H      34  RU34        0.0000
    640  H3        42.1860   19.6630   11.1000 H      34  RU34        0.0000
    641  H3'       45.1890   18.4720   17.8550 H      34  RU34        0.0000
    642  H2'       45.3030   19.3500   15.7760 H      34  RU34        0.0000
    643 H2''       45.2300   18.6120   14.1320 H      34  RU34        0.0000
    644  P         45.9130   15.8890   18.0730 P.3    35  RA35        0.0000
    645  OP1       45.4110   16.2620   19.4210 O.3    35  RA35        0.0000
    646  OP2       47.3100   16.1820   17.6620 O.2    35  RA35        0.0000
    647  O5'       45.6930   14.3380   17.8640 O.3    35  RA35        0.0000
    648  C5'       44.4610   13.7190   18.2020 C.3    35  RA35        0.0000
    649  C4'       44.5800   12.2300   18.0310 C.3    35  RA35        0.0000
    650  O4'       44.4930   11.9180   16.6150 O.3    35  RA35        0.0000
    651  C3'       45.9040   11.6600   18.5230 C.3    35  RA35        0.0000
    652  O3'       45.6950   10.3830   19.1120 O.3    35  RA35        0.0000
    653  C2'       46.7480   11.5480   17.2480 C.3    35  RA35        0.0000
    654  O2'       47.7220   10.5160   17.2710 O.3    35  RA35        0.0000
    655  C1'       45.6950   11.3160   16.1620 C.3    35  RA35        0.0000
    656  N9        46.0610   11.9520   14.8890 N.ar   35  RA35        0.0000
    657  C8        45.8170   13.2500   14.5100 C.ar   35  RA35        0.0000
    658  N7        46.2720   13.5670   13.3160 N.ar   35  RA35        0.0000
    659  C5        46.8600   12.3920   12.8770 C.ar   35  RA35        0.0000
    660  C6        47.5310   12.0700   11.6820 C.3    35  RA35        0.0000
    661  N6        47.7140   12.9260   10.6750 N.3    35  RA35        0.0000
    662  N1        47.9910   10.8080   11.5510 N.2    35  RA35        0.0000
    663  C2        47.8060    9.9410   12.5660 C.2    35  RA35        0.0000
    664  N3        47.1970   10.1270   13.7370 N.pl3  35  RA35        0.0000
    665  C4        46.7360   11.3870   13.8310 C.ar   35  RA35        0.0000
    666  H5'       43.6680   14.0950   17.5510 H      35  RA35        0.0000
    667 H5''       44.2040   13.9400   19.2410 H      35  RA35        0.0000
    668  H4'       43.7120   11.7370   18.4730 H      35  RA35        0.0000
    669  H1'       45.4920   10.2810   15.8960 H      35  RA35        0.0000
    670  H8        45.3330   13.9310   15.1950 H      35  RA35        0.0000
    671  H61       48.2030   12.6350    9.8440 H      35  RA35        0.0000
    672  H62       47.3600   13.8730   10.7450 H      35  RA35        0.0000
    673  H2        48.1800    8.9340   12.4850 H      35  RA35        0.0000
    674  H3'       46.3780   12.3690   19.2080 H      35  RA35        0.0000
    675  H2'       47.6920   12.0840   17.3940 H      35  RA35        0.0000
    676 H2''       48.0650   10.7170   16.3350 H      35  RA35        0.0000
    677  P         45.6300   10.2550   20.7140 P.3    36  RU36        0.0000
    678  OP1       46.8660   10.8700   21.2430 O.3    36  RU36        0.0000
    679  OP2       45.3040    8.8380   21.0510 O.2    36  RU36        0.0000
    680  O5'       44.3870   11.1670   21.1200 O.3    36  RU36        0.0000
    681  C5'       43.0890   10.6100   21.3260 C.3    36  RU36        0.0000
    682  C4'       42.3110   11.3640   22.3810 C.3    36  RU36        0.0000
    683  O4'       43.0780   11.3920   23.6170 O.3    36  RU36        0.0000
    684  C3'       41.9880   12.8240   22.0530 C.3    36  RU36        0.0000
    685  O3'       40.7610   13.1730   22.6770 O.3    36  RU36        0.0000
    686  C2'       43.0850   13.5800   22.7920 C.3    36  RU36        0.0000
    687  O2'       42.7300   14.8990   23.1270 O.3    36  RU36        0.0000
    688  C1'       43.2310   12.7290   24.0510 C.3    36  RU36        0.0000
    689  N1        44.5220   12.8650   24.7410 N.ar   36  RU36        0.0000
    690  C2        44.5370   13.4280   26.0100 C.ar   36  RU36        0.0000
    691  O2        43.5420   13.8030   26.5890 O.2    36  RU36        0.0000
    692  N3        45.7710   13.5320   26.5950 N.ar   36  RU36        0.0000
    693  C4        46.9780   13.1220   26.0580 C.ar   36  RU36        0.0000
    694  O4        48.0130   13.2850   26.7120 O.2    36  RU36        0.0000
    695  C5        46.8860   12.5450   24.7420 C.ar   36  RU36        0.0000
    696  C6        45.6910   12.4420   24.1440 C.ar   36  RU36        0.0000
    697  H5'       43.1870    9.5590   21.6360 H      36  RU36        0.0000
    698 H5''       42.5140   10.6550   20.4010 H      36  RU36        0.0000
    699  H4'       41.4040   10.8090   22.6340 H      36  RU36        0.0000
    700  H1'       42.4870   12.9360   24.8250 H      36  RU36        0.0000
    701  H6        45.6550   12.0470   23.1310 H      36  RU36        0.0000
    702  H5        47.7820   12.1980   24.2440 H      36  RU36        0.0000
    703  H3        45.8120   13.9850   27.5890 H      36  RU36        0.0000
    704  H3'       42.0910   12.9850   20.9800 H      36  RU36        0.0000
    705  H2'       43.6950   14.1330   22.0830 H      36  RU36        0.0000
    706 H2''       43.5850   15.1020   23.6310 H      36  RU36        0.0000
    707  P         39.3490   12.9660   21.9520 P.3    37  RG37        0.0000
    708  OP1       38.3620   13.3060   22.9970 O.3    37  RG37        0.0000
    709  OP2       39.2990   11.6510   21.2810 O.2    37  RG37        0.0000
    710  O5'       39.3270   14.0660   20.7940 O.3    37  RG37        0.0000
    711  C5'       39.3120   15.4570   21.0620 C.3    37  RG37        0.0000
    712  C4'       39.2200   16.2340   19.7620 C.3    37  RG37        0.0000
    713  O4'       40.4630   16.1030   19.0130 O.3    37  RG37        0.0000
    714  C3'       38.1460   15.7360   18.8050 C.3    37  RG37        0.0000
    715  O3'       36.8730   16.2710   19.1110 O.3    37  RG37        0.0000
    716  C2'       38.6900   16.1420   17.4370 C.3    37  RG37        0.0000
    717  O2'       38.4620   17.5320   17.1920 O.3    37  RG37        0.0000
    718  C1'       40.1890   15.9140   17.6370 C.3    37  RG37        0.0000
    719  N9        40.6030   14.5390   17.2710 N.ar   37  RG37        0.0000
    720  C8        40.5430   13.4170   18.0780 C.ar   37  RG37        0.0000
    721  N7        40.9790   12.3330   17.4960 N.ar   37  RG37        0.0000
    722  C5        41.3430   12.7460   16.2270 C.ar   37  RG37        0.0000
    723  C6        41.8860   12.0170   15.1260 C.ar   37  RG37        0.0000
    724  O6        42.1460   10.8180   15.0410 O.2    37  RG37        0.0000
    725  N1        42.1160   12.8290   14.0160 N.ar   37  RG37        0.0000
    726  C2        41.8620   14.1730   13.9690 C.ar   37  RG37        0.0000
    727  N2        42.1610   14.7860   12.8110 N.pl3  37  RG37        0.0000
    728  N3        41.3560   14.8630   14.9800 N.ar   37  RG37        0.0000
    729  C4        41.1120   14.0990   16.0680 C.ar   37  RG37        0.0000
    730  H5'       40.2270   15.7470   21.5840 H      37  RG37        0.0000
    731 H5''       38.4520   15.7090   21.6890 H      37  RG37        0.0000
    732  H4'       39.1440   17.3040   19.9810 H      37  RG37        0.0000
    733  H1'       40.8470   16.5510   17.0440 H      37  RG37        0.0000
    734  H8        40.1640   13.4960   19.0830 H      37  RG37        0.0000
    735  H1        42.4930   12.3970   13.1990 H      37  RG37        0.0000
    736  H21       42.5600   14.3650   11.9860 H      37  RG37        0.0000
    737  H22       41.9850   15.7800   12.7710 H      37  RG37        0.0000
    738  H3'       38.0800   14.6480   18.8610 H      37  RG37        0.0000
    739  H2'       37.9200   16.0160   16.6820 H      37  RG37        0.0000
    740 H2''       38.9710   17.5570   16.3220 H      37  RG37        0.0000
    741  P         35.5340   15.4420   18.7910 P.3    38  RG38        0.0000
    742  OP1       34.4170   16.2470   19.3190 O.3    38  RG38        0.0000
    743  OP2       35.6740   14.0080   19.1740 O.2    38  RG38        0.0000
    744  O5'       35.4540   15.4820   17.2040 O.3    38  RG38        0.0000
    745  C5'       35.2620   16.7070   16.5050 C.3    38  RG38        0.0000
    746  C4'       35.4480   16.4890   15.0220 C.3    38  RG38        0.0000
    747  O4'       36.8270   16.1210   14.7690 O.3    38  RG38        0.0000
    748  C3'       34.6330   15.3490   14.4310 C.3    38  RG38        0.0000
    749  O3'       33.3150   15.7480   14.0870 O.3    38  RG38        0.0000
    750  C2'       35.4740   14.9080   13.2340 C.3    38  RG38        0.0000
    751  O2'       35.2230   15.7330   12.1120 O.3    38  RG38        0.0000
    752  C1'       36.8990   15.1520   13.7430 C.3    38  RG38        0.0000
    753  N9        37.4350   13.8860   14.2780 N.ar   38  RG38        0.0000
    754  C8        37.1150   13.2790   15.4660 C.ar   38  RG38        0.0000
    755  N7        37.6770   12.1050   15.6040 N.ar   38  RG38        0.0000
    756  C5        38.3790   11.9230   14.4300 C.ar   38  RG38        0.0000
    757  C6        39.1720   10.8280   14.0140 C.ar   38  RG38        0.0000
    758  O6        39.3980    9.7820   14.6400 O.2    38  RG38        0.0000
    759  N1        39.7000   11.0310   12.7400 N.ar   38  RG38        0.0000
    760  C2        39.4960   12.1650   11.9700 C.ar   38  RG38        0.0000
    761  N2        40.0990   12.2010   10.7660 N.pl3  38  RG38        0.0000
    762  N3        38.7560   13.1910   12.3560 N.ar   38  RG38        0.0000
    763  C4        38.2290   13.0030   13.5870 C.ar   38  RG38        0.0000
    764  H5'       35.9860   17.4480   16.8520 H      38  RG38        0.0000
    765 H5''       34.2530   17.0840   16.6850 H      38  RG38        0.0000
    766  H4'       35.3140   17.4360   14.4930 H      38  RG38        0.0000
    767  H1'       37.6480   15.4620   13.0010 H      38  RG38        0.0000
    768  H8        36.4680   13.7630   16.1730 H      38  RG38        0.0000
    769  H1        40.2670   10.3090   12.3500 H      38  RG38        0.0000
    770  H21       40.6950   11.4810   10.3800 H      38  RG38        0.0000
    771  H22       39.9580   13.0260   10.2140 H      38  RG38        0.0000
    772  H3'       34.5700   14.5300   15.1510 H      38  RG38        0.0000
    773  H2'       34.9140   14.1880   12.6390 H      38  RG38        0.0000
    774 H2''       35.9200   15.3030   11.5190 H      38  RG38        0.0000
    775  P         32.0450   14.8350   14.4880 P.3    39  RC39        0.0000
    776  OP1       32.5420   13.5690   15.0660 O.3    39  RC39        0.0000
    777  OP2       31.1340   14.8170   13.3180 O.2    39  RC39        0.0000
    778  O5'       31.3300   15.6200   15.6810 O.3    39  RC39        0.0000
    779  C5'       30.4580   16.7150   15.4230 C.3    39  RC39        0.0000
    780  C4'       30.8320   17.9480   16.2180 C.3    39  RC39        0.0000
    781  O4'       32.1220   18.4470   15.7750 O.3    39  RC39        0.0000
    782  C3'       29.8880   19.1320   16.0510 C.3    39  RC39        0.0000
    783  O3'       28.7740   19.0630   16.9210 O.3    39  RC39        0.0000
    784  C2'       30.7870   20.3330   16.3110 C.3    39  RC39        0.0000
    785  O2'       30.9530   20.5480   17.7040 O.3    39  RC39        0.0000
    786  C1'       32.1140   19.8570   15.7220 C.3    39  RC39        0.0000
    787  N1        32.2940   20.2710   14.3020 N.ar   39  RC39        0.0000
    788  C2        32.4170   21.6310   13.9630 C.ar   39  RC39        0.0000
    789  O2        32.3500   22.5060   14.8510 O.2    39  RC39        0.0000
    790  N3        32.5910   21.9620   12.6610 N.ar   39  RC39        0.0000
    791  C4        32.6690   21.0320   11.7000 C.ar   39  RC39        0.0000
    792  N4        32.8590   21.4330   10.4240 N.pl3  39  RC39        0.0000
    793  C5        32.5550   19.6450   12.0140 C.ar   39  RC39        0.0000
    794  C6        32.3880   19.3280   13.3100 C.ar   39  RC39        0.0000
    795  H5'       29.4240   16.4290   15.6750 H      39  RC39        0.0000
    796 H5''       30.5020   16.9880   14.3680 H      39  RC39        0.0000
    797  H4'       30.9890   17.6730   17.2660 H      39  RC39        0.0000
    798  H1'       33.0040   20.2490   16.2170 H      39  RC39        0.0000
    799  H6        32.3240   18.2720   13.5890 H      39  RC39        0.0000
    800  H5        32.5980   18.8600   11.2550 H      39  RC39        0.0000
    801  H41       32.9320   22.4120   10.2580 H      39  RC39        0.0000
    802  H42       32.9190   20.7400    9.6970 H      39  RC39        0.0000
    803  H3'       29.5220   19.1650   15.0220 H      39  RC39        0.0000
    804  H2'       30.1830   21.2370   16.3830 H      39  RC39        0.0000
    805 H2''       31.6170   21.3010   17.6100 H      39  RC39        0.0000
    806  P         27.3970   19.7800   16.5240 P.3    40  RA40        0.0000
    807  OP1       26.4290   19.4480   17.6070 O.3    40  RA40        0.0000
    808  OP2       27.0260   19.4920   15.1150 O.2    40  RA40        0.0000
    809  O5'       27.7190   21.3420   16.6140 O.3    40  RA40        0.0000
    810  C5'       27.8170   21.9890   17.8730 C.3    40  RA40        0.0000
    811  C4'       27.8710   23.4870   17.7160 C.3    40  RA40        0.0000
    812  O4'       29.0880   23.8710   17.0240 O.3    40  RA40        0.0000
    813  C3'       26.7640   24.0930   16.8690 C.3    40  RA40        0.0000
    814  O3'       25.5430   24.2430   17.5700 O.3    40  RA40        0.0000
    815  C2'       27.3890   25.3970   16.3910 C.3    40  RA40        0.0000
    816  O2'       27.3990   26.3720   17.4270 O.3    40  RA40        0.0000
    817  C1'       28.8280   24.9560   16.1560 C.3    40  RA40        0.0000
    818  N9        29.0580   24.5100   14.7690 N.ar   40  RA40        0.0000
    819  C8        29.0660   23.2250   14.2830 C.ar   40  RA40        0.0000
    820  N7        29.3270   23.1400   12.9930 N.ar   40  RA40        0.0000
    821  C5        29.5060   24.4540   12.5980 C.ar   40  RA40        0.0000
    822  C6        29.8040   25.0280   11.3430 C.3    40  RA40        0.0000
    823  N6        29.9980   24.3090   10.2260 N.3    40  RA40        0.0000
    824  N1        29.9140   26.3790   11.2890 N.2    40  RA40        0.0000
    825  C2        29.7340   27.0840   12.4210 C.2    40  RA40        0.0000
    826  N3        29.4510   26.6480   13.6530 N.pl3  40  RA40        0.0000
    827  C4        29.3410   25.3100   13.6790 C.ar   40  RA40        0.0000
    828  H5'       28.7240   21.6500   18.3930 H      40  RA40        0.0000
    829 H5''       26.9470   21.7490   18.4880 H      40  RA40        0.0000
    830  H4'       27.9570   23.9580   18.7020 H      40  RA40        0.0000
    831  H1'       29.5820   25.7270   16.3140 H      40  RA40        0.0000
    832  H8        28.8230   22.3980   14.9280 H      40  RA40        0.0000
    833  H61       30.2080   24.7770    9.3600 H      40  RA40        0.0000
    834  H62       29.9330   23.3020   10.2580 H      40  RA40        0.0000
    835  H2        29.8150   28.1570   12.4060 H      40  RA40        0.0000
    836  H3'       26.5640   23.4490   16.0110 H      40  RA40        0.0000
    837  H2'       26.6260   26.0330   15.9510 H      40  RA40        0.0000
    838 H2''       27.9200   27.0640   16.9180 H      40  RA40        0.0000
    839  P         24.1500   24.1260   16.7850 P.3    41  RC41        0.0000
    840  OP1       23.0790   24.1360   17.8170 O.3    41  RC41        0.0000
    841  OP2       24.2270   23.0250   15.7880 O.2    41  RC41        0.0000
    842  O5'       24.0580   25.4780   15.9410 O.3    41  RC41        0.0000
    843  C5'       24.0560   26.7360   16.5920 C.3    41  RC41        0.0000
    844  C4'       24.2080   27.8730   15.6150 C.3    41  RC41        0.0000
    845  O4'       25.5390   27.8470   15.0260 O.3    41  RC41        0.0000
    846  C3'       23.2950   27.8670   14.4020 C.3    41  RC41        0.0000
    847  O3'       21.9590   28.2600   14.6720 O.3    41  RC41        0.0000
    848  C2'       24.0490   28.7860   13.4600 C.3    41  RC41        0.0000
    849  O2'       24.0040   30.1280   13.9470 O.3    41  RC41        0.0000
    850  C1'       25.4710   28.2900   13.6860 C.3    41  RC41        0.0000
    851  N1        25.8010   27.1700   12.7660 N.ar   41  RC41        0.0000
    852  C2        26.2010   27.5030   11.4680 C.ar   41  RC41        0.0000
    853  O2        26.2880   28.7090   11.1700 O.2    41  RC41        0.0000
    854  N3        26.4850   26.5190   10.5730 N.ar   41  RC41        0.0000
    855  C4        26.3870   25.2400   10.9380 C.ar   41  RC41        0.0000
    856  N4        26.6770   24.3060   10.0230 N.pl3  41  RC41        0.0000
    857  C5        25.9690   24.8650   12.2490 C.ar   41  RC41        0.0000
    858  C6        25.6910   25.8450   13.1210 C.ar   41  RC41        0.0000
    859  H5'       24.8820   26.7770   17.3200 H      41  RC41        0.0000
    860 H5''       23.1130   26.8860   17.1220 H      41  RC41        0.0000
    861  H4'       24.1670   28.8280   16.1500 H      41  RC41        0.0000
    862  H1'       26.2690   29.0200   13.5000 H      41  RC41        0.0000
    863  H6        25.3730   25.5960   14.1250 H      41  RC41        0.0000
    864  H5        25.8710   23.8130   12.5560 H      41  RC41        0.0000
    865  H41       26.9660   24.6180    9.1180 H      41  RC41        0.0000
    866  H42       26.5980   23.3310   10.2670 H      41  RC41        0.0000
    867  H3'       23.2520   26.8660   13.9810 H      41  RC41        0.0000
    868  H2'       23.3990   29.1240   12.6640 H      41  RC41        0.0000
    869 H2''       24.6360   30.5130   13.2730 H      41  RC41        0.0000
    870  P         20.7470   27.6130   13.8340 P.3    42  RG42        0.0000
    871  OP1       19.5180   28.2050   14.4120 O.3    42  RG42        0.0000
    872  OP2       20.8990   26.1310   13.7440 O.2    42  RG42        0.0000
    873  O5'       20.9380   28.1900   12.3600 O.3    42  RG42        0.0000
    874  C5'       20.8360   29.5940   12.1230 C.3    42  RG42        0.0000
    875  C4'       21.3490   29.9900   10.7560 C.3    42  RG42        0.0000
    876  O4'       22.7400   29.5970   10.5850 O.3    42  RG42        0.0000
    877  C3'       20.6600   29.3740    9.5490 C.3    42  RG42        0.0000
    878  O3'       19.3910   29.9450    9.2620 O.3    42  RG42        0.0000
    879  C2'       21.6960   29.6070    8.4550 C.3    42  RG42        0.0000
    880  O2'       21.7100   30.9640    8.0600 O.3    42  RG42        0.0000
    881  C1'       22.9910   29.3320    9.2170 C.3    42  RG42        0.0000
    882  N9        23.3750   27.9190    9.0410 N.ar   42  RG42        0.0000
    883  C8        23.2780   26.8670    9.9190 C.ar   42  RG42        0.0000
    884  N7        23.6820   25.7320    9.3990 N.ar   42  RG42        0.0000
    885  C5        24.0560   26.0590    8.1000 C.ar   42  RG42        0.0000
    886  C6        24.5660   25.2590    7.0470 C.ar   42  RG42        0.0000
    887  O6        24.8120   24.0520    7.0340 O.2    42  RG42        0.0000
    888  N1        24.7970   26.0110    5.9040 N.ar   42  RG42        0.0000
    889  C2        24.5720   27.3500    5.7670 C.ar   42  RG42        0.0000
    890  N2        24.8660   27.8680    4.5680 N.pl3  42  RG42        0.0000
    891  N3        24.0940   28.1110    6.7350 N.ar   42  RG42        0.0000
    892  C4        23.8620   27.4030    7.8630 C.ar   42  RG42        0.0000
    893  H5'       21.4100   30.1370   12.8920 H      42  RG42        0.0000
    894 H5''       19.7930   29.9060   12.1740 H      42  RG42        0.0000
    895  H4'       21.3630   31.0860   10.6720 H      42  RG42        0.0000
    896  H1'       23.8810   29.8890    8.8970 H      42  RG42        0.0000
    897  H8        22.9060   27.0150   10.9140 H      42  RG42        0.0000
    898  H1        25.1650   25.5220    5.1020 H      42  RG42        0.0000
    899  H21       25.2430   27.3840    3.7660 H      42  RG42        0.0000
    900  H22       24.7110   28.8630    4.4570 H      42  RG42        0.0000
    901  H3'       20.5310   28.3060    9.7060 H      42  RG42        0.0000
    902  H2'       21.2490   29.4380    7.4800 H      42  RG42        0.0000
    903 H2''       22.4960   30.8920    7.4370 H      42  RG42        0.0000
    904  P         18.2480   29.1090    8.4780 P.3    43  RC43        0.0000
    905  OP1       17.0160   29.9240    8.5920 O.2    43  RC43        0.0000
    906  OP2       18.2270   27.6910    8.9310 O.3    43  RC43        0.0000
    907  O5'       18.7270   29.1270    6.9550 O.3    43  RC43        0.0000
    908  C5'       18.8840   30.3570    6.2680 C.3    43  RC43        0.0000
    909  C4'       19.4100   30.1710    4.8700 C.3    43  RC43        0.0000
    910  O4'       20.7740   29.6640    4.8910 O.3    43  RC43        0.0000
    911  C3'       18.6710   29.1720    4.0020 C.3    43  RC43        0.0000
    912  O3'       17.4510   29.6770    3.4900 O.3    43  RC43        0.0000
    913  C2'       19.7020   28.8690    2.9300 C.3    43  RC43        0.0000
    914  O2'       19.8020   29.9620    2.0370 O.3    43  RC43        0.0000
    915  C1'       20.9860   28.8330    3.7610 C.3    43  RC43        0.0000
    916  N1        21.3010   27.4500    4.2020 N.ar   43  RC43        0.0000
    917  C2        21.8760   26.5380    3.2920 C.ar   43  RC43        0.0000
    918  O2        22.1460   26.8920    2.1320 O.2    43  RC43        0.0000
    919  N3        22.1450   25.2720    3.6960 N.ar   43  RC43        0.0000
    920  C4        21.8550   24.8880    4.9390 C.ar   43  RC43        0.0000
    921  N4        22.1420   23.6330    5.2990 N.pl3  43  RC43        0.0000
    922  C5        21.2640   25.7850    5.8770 C.ar   43  RC43        0.0000
    923  C6        21.0060   27.0350    5.4700 C.ar   43  RC43        0.0000
    924  H5'       19.5790   31.0060    6.8290 H      43  RC43        0.0000
    925 H5''       17.9230   30.8660    6.1800 H      43  RC43        0.0000
    926  H4'       19.4920   31.1480    4.3720 H      43  RC43        0.0000
    927  H1'       21.8960   29.1530    3.2400 H      43  RC43        0.0000
    928  H6        20.5510   27.7380    6.1620 H      43  RC43        0.0000
    929  H5        21.0200   25.4810    6.9060 H      43  RC43        0.0000
    930  H41       22.5570   23.0370    4.6070 H      43  RC43        0.0000
    931  H42       21.9390   23.3230    6.2360 H      43  RC43        0.0000
    932  H3'       18.4640   28.2690    4.5750 H      43  RC43        0.0000
    933  H2'       19.2350   28.3520    2.0980 H      43  RC43        0.0000
    934 H2''       20.5750   29.6020    1.5050 H      43  RC43        0.0000
    935  P         16.1980   28.6930    3.2560 P.3    44  RA44        0.0000
    936  OP1       15.0760   29.5580    2.8020 O.2    44  RA44        0.0000
    937  OP2       15.9870   27.8120    4.4280 O.3    44  RA44        0.0000
    938  O5'       16.6620   27.7390    2.0630 O.3    44  RA44        0.0000
    939  C5'       16.8730   28.2530    0.7600 C.3    44  RA44        0.0000
    940  C4'       17.5000   27.2420   -0.1740 C.3    44  RA44        0.0000
    941  O4'       18.8340   26.8710    0.2760 O.3    44  RA44        0.0000
    942  C3'       16.7990   25.9030   -0.3500 C.3    44  RA44        0.0000
    943  O3'       15.6510   25.9660   -1.1840 O.3    44  RA44        0.0000
    944  C2'       17.9170   25.0490   -0.9320 C.3    44  RA44        0.0000
    945  O2'       18.1510   25.4110   -2.2860 O.3    44  RA44        0.0000
    946  C1'       19.1100   25.5370   -0.1110 C.3    44  RA44        0.0000
    947  N9        19.2710   24.7180    1.0980 N.ar   44  RA44        0.0000
    948  C8        18.9500   25.0800    2.3800 C.ar   44  RA44        0.0000
    949  N7        19.1750   24.1460    3.2650 N.ar   44  RA44        0.0000
    950  C5        19.6630   23.0890    2.5130 C.ar   44  RA44        0.0000
    951  C6        20.0830   21.8070    2.8800 C.3    44  RA44        0.0000
    952  N6        20.0650   21.3880    4.1490 N.3    44  RA44        0.0000
    953  N1        20.5220   20.9750    1.9020 N.2    44  RA44        0.0000
    954  C2        20.5290   21.4300    0.6410 C.2    44  RA44        0.0000
    955  N3        20.1570   22.6250    0.1710 N.pl3  44  RA44        0.0000
    956  C4        19.7310   23.4210    1.1700 C.ar   44  RA44        0.0000
    957  H5'       17.5290   29.1410    0.8140 H      44  RA44        0.0000
    958 H5''       15.9230   28.5470    0.3110 H      44  RA44        0.0000
    959  H4'       17.6630   27.7030   -1.1580 H      44  RA44        0.0000
    960  H1'       20.0900   25.5030   -0.5900 H      44  RA44        0.0000
    961  H8        18.5060   26.0430    2.5760 H      44  RA44        0.0000
    962  H61       20.3810   20.4430    4.3690 H      44  RA44        0.0000
    963  H62       19.7440   21.9940    4.8840 H      44  RA44        0.0000
    964  H2        20.8700   20.7970   -0.1600 H      44  RA44        0.0000
    965  H3'       16.5090   25.5110    0.6220 H      44  RA44        0.0000
    966  H2'       17.5080   24.1330   -1.3460 H      44  RA44        0.0000
    967 H2''       18.9560   24.8240   -2.4180 H      44  RA44        0.0000
    968  P         14.4780   24.8660   -1.0560 P.3    45  RA45        0.0000
    969  OP1       13.4090   25.2590   -2.0060 O.2    45  RA45        0.0000
    970  OP2       14.1500   24.5940    0.3680 O.3    45  RA45        0.0000
    971  O5'       15.1310   23.5270   -1.6050 O.3    45  RA45        0.0000
    972  C5'       15.5160   23.4130   -2.9590 C.3    45  RA45        0.0000
    973  C4'       16.2350   22.1140   -3.1900 C.3    45  RA45        0.0000
    974  O4'       17.3400   21.9920   -2.2650 O.3    45  RA45        0.0000
    975  C3'       15.4260   20.8550   -2.9460 C.3    45  RA45        0.0000
    976  O3'       14.5670   20.5480   -4.0240 O.3    45  RA45        0.0000
    977  C2'       16.5090   19.8130   -2.7160 C.3    45  RA45        0.0000
    978  O2'       17.0830   19.4130   -3.9490 O.3    45  RA45        0.0000
    979  C1'       17.5540   20.6290   -1.9600 C.3    45  RA45        0.0000
    980  N9        17.4770   20.4420   -0.5020 N.ar   45  RA45        0.0000
    981  C8        17.0640   21.3340    0.4510 C.ar   45  RA45        0.0000
    982  N7        17.1370   20.8630    1.6710 N.ar   45  RA45        0.0000
    983  C5        17.6450   19.5810    1.5090 C.ar   45  RA45        0.0000
    984  C6        17.9630   18.5600    2.4190 C.3    45  RA45        0.0000
    985  N6        17.8200   18.6720    3.7400 N.3    45  RA45        0.0000
    986  N1        18.4480   17.4020    1.9110 N.2    45  RA45        0.0000
    987  C2        18.5970   17.2870    0.5860 C.2    45  RA45        0.0000
    988  N3        18.3310   18.1790   -0.3650 N.pl3  45  RA45        0.0000
    989  C4        17.8570   19.3110    0.1710 C.ar   45  RA45        0.0000
    990  H5'       16.1790   24.2440   -3.2290 H      45  RA45        0.0000
    991 H5''       14.6350   23.4410   -3.6060 H      45  RA45        0.0000
    992  H4'       16.7060   22.1240   -4.1810 H      45  RA45        0.0000
    993  H1'       18.5860   20.3670   -2.2070 H      45  RA45        0.0000
    994  H8        16.6770   22.2960    0.1670 H      45  RA45        0.0000
    995  H61       18.0660   17.9020    4.3450 H      45  RA45        0.0000
    996  H62       17.4640   19.5310    4.1410 H      45  RA45        0.0000
    997  H2        18.9790   16.3760    0.1610 H      45  RA45        0.0000
    998  H3'       14.8310   20.9700   -2.0390 H      45  RA45        0.0000
    999  H2'       16.0710   18.8170   -2.7200 H      45  RA45        0.0000
   1000 H2''       17.7950   18.8250   -3.5530 H      45  RA45        0.0000
   1001  P         13.1100   19.9430   -3.7440 P.3    46  RG46        0.0000
   1002  OP1       12.4520   19.8680   -5.0690 O.2    46  RG46        0.0000
   1003  OP2       12.4580   20.6700   -2.6200 O.3    46  RG46        0.0000
   1004  O5'       13.4030   18.4670   -3.2270 O.3    46  RG46        0.0000
   1005  C5'       14.1050   17.5340   -4.0320 C.3    46  RG46        0.0000
   1006  C4'       14.5480   16.3430   -3.2240 C.3    46  RG46        0.0000
   1007  O4'       15.4480   16.7680   -2.1710 O.3    46  RG46        0.0000
   1008  C3'       13.4510   15.5890   -2.4890 C.3    46  RG46        0.0000
   1009  O3'       12.7720   14.6830   -3.3340 O.3    46  RG46        0.0000
   1010  C2'       14.2130   14.9010   -1.3650 C.3    46  RG46        0.0000
   1011  O2'       14.8580   13.7270   -1.8380 O.3    46  RG46        0.0000
   1012  C1'       15.2880   15.9420   -1.0380 C.3    46  RG46        0.0000
   1013  N9        14.9240   16.7970    0.1070 N.ar   46  RG46        0.0000
   1014  C8        14.2630   18.0030    0.0390 C.ar   46  RG46        0.0000
   1015  N7        14.0860   18.5450    1.2110 N.ar   46  RG46        0.0000
   1016  C5        14.6800   17.6630    2.1040 C.ar   46  RG46        0.0000
   1017  C6        14.7940   17.7330    3.5160 C.ar   46  RG46        0.0000
   1018  O6        14.3800   18.6210    4.2700 O.2    46  RG46        0.0000
   1019  N1        15.4560   16.6200    4.0370 N.ar   46  RG46        0.0000
   1020  C2        15.9580   15.5810    3.2890 C.ar   46  RG46        0.0000
   1021  N2        16.5670   14.5940    3.9690 N.pl3  46  RG46        0.0000
   1022  N3        15.8520   15.5070    1.9660 N.ar   46  RG46        0.0000
   1023  C4        15.2040   16.5730    1.4420 C.ar   46  RG46        0.0000
   1024  H5'       14.9880   18.0170   -4.4730 H      46  RG46        0.0000
   1025 H5''       13.4620   17.1730   -4.8370 H      46  RG46        0.0000
   1026  H4'       15.1530   15.6780   -3.8500 H      46  RG46        0.0000
   1027  H1'       16.2550   15.5210   -0.7540 H      46  RG46        0.0000
   1028  H8        13.9540   18.4020   -0.9080 H      46  RG46        0.0000
   1029  H1        15.5740   16.5750    5.0280 H      46  RG46        0.0000
   1030  H21       16.7010   14.5470    4.9690 H      46  RG46        0.0000
   1031  H22       16.9430   13.8360    3.4240 H      46  RG46        0.0000
   1032  H3'       12.7380   16.2990   -2.0650 H      46  RG46        0.0000
   1033  H2'       13.5630   14.1890   -0.8590 H      46  RG46        0.0000
   1034 H2''       15.3340   13.5170   -0.9760 H      46  RG46        0.0000
   1035  P         11.2440   14.9400   -3.7460 P.3    47  RU47        0.0000
   1036  OP1       11.0390   14.1810   -5.0000 O.2    47  RU47        0.0000
   1037  OP2       10.9390   16.3860   -3.6560 O.3    47  RU47        0.0000
   1038  O5'       10.4160   14.2300   -2.5860 O.3    47  RU47        0.0000
   1039  C5'       10.5870   12.8440   -2.3190 C.3    47  RU47        0.0000
   1040  C4'        9.6560   12.3600   -1.2340 C.3    47  RU47        0.0000
   1041  O4'       10.1160   12.8460    0.0620 O.3    47  RU47        0.0000
   1042  C3'        8.1990   12.8060   -1.3600 C.3    47  RU47        0.0000
   1043  O3'        7.3710   11.7670   -0.8370 O.3    47  RU47        0.0000
   1044  C2'        8.1470   14.0140   -0.4210 C.3    47  RU47        0.0000
   1045  O2'        6.8640   14.3590    0.0620 O.3    47  RU47        0.0000
   1046  C1'        9.0680   13.5490    0.7020 C.3    47  RU47        0.0000
   1047  N1         9.6340   14.6320    1.5180 N.ar   47  RU47        0.0000
   1048  C2         9.5230   14.5170    2.8940 C.ar   47  RU47        0.0000
   1049  O2         9.0050   13.5590    3.4380 O.2    47  RU47        0.0000
   1050  N3        10.0450   15.5620    3.6140 N.ar   47  RU47        0.0000
   1051  C4        10.6660   16.6830    3.1100 C.ar   47  RU47        0.0000
   1052  O4        11.0990   17.5420    3.8830 O.2    47  RU47        0.0000
   1053  C5        10.7400   16.7270    1.6840 C.ar   47  RU47        0.0000
   1054  C6        10.2270   15.7280    0.9520 C.ar   47  RU47        0.0000
   1055  H5'       11.6270   12.6540   -2.0100 H      47  RU47        0.0000
   1056 H5''       10.3740   12.2600   -3.2150 H      47  RU47        0.0000
   1057  H4'        9.7190   11.2700   -1.1530 H      47  RU47        0.0000
   1058  H1'        8.5890   12.8840    1.4270 H      47  RU47        0.0000
   1059  H6        10.2510   15.8230   -0.1320 H      47  RU47        0.0000
   1060  H5        11.2140   17.5740    1.1930 H      47  RU47        0.0000
   1061  H3         9.9600   15.5000    4.7030 H      47  RU47        0.0000
   1062  H3'        8.0040   13.1310   -2.3800 H      47  RU47        0.0000
   1063  H2'        7.9030   14.9070   -0.9880 H      47  RU47        0.0000
   1064 H2''        7.1990   15.1260    0.6390 H      47  RU47        0.0000
   1065  P          6.4980   10.8360   -1.8160 P.3    48  RU48        0.0000
   1066  OP1        5.7750    9.8810   -0.9450 O.3    48  RU48        0.0000
   1067  OP2        7.3240   10.3430   -2.9480 O.2    48  RU48        0.0000
   1068  O5'        5.4410   11.8540   -2.4270 O.3    48  RU48        0.0000
   1069  C5'        4.4490   12.4520   -1.6030 C.3    48  RU48        0.0000
   1070  C4'        3.8200   13.6390   -2.2850 C.3    48  RU48        0.0000
   1071  O4'        2.9720   13.1850   -3.3810 O.3    48  RU48        0.0000
   1072  C3'        2.9370   14.4970   -1.3890 C.3    48  RU48        0.0000
   1073  O3'        3.0820   15.8620   -1.7600 O.3    48  RU48        0.0000
   1074  C2'        1.5290   14.0190   -1.7340 C.3    48  RU48        0.0000
   1075  O2'        0.5110   14.9670   -1.4950 O.3    48  RU48        0.0000
   1076  C1'        1.6660   13.7030   -3.2180 C.3    48  RU48        0.0000
   1077  N1         0.7020   12.7010   -3.6910 N.ar   48  RU48        0.0000
   1078  C2        -0.1070   13.0160   -4.7750 C.ar   48  RU48        0.0000
   1079  O2        -0.0440   14.0840   -5.3670 O.2    48  RU48        0.0000
   1080  N3        -0.9890   12.0270   -5.1530 N.ar   48  RU48        0.0000
   1081  C4        -1.1390   10.7890   -4.5560 C.ar   48  RU48        0.0000
   1082  O4        -1.9710    9.9980   -4.9930 O.2    48  RU48        0.0000
   1083  C5        -0.2720   10.5480   -3.4400 C.ar   48  RU48        0.0000
   1084  C6         0.5940   11.4910   -3.0540 C.ar   48  RU48        0.0000
   1085  H5'        4.9030   12.7790   -0.6580 H      48  RU48        0.0000
   1086 H5''        3.6590   11.7310   -1.3850 H      48  RU48        0.0000
   1087  H4'        4.5950   14.2390   -2.7730 H      48  RU48        0.0000
   1088  H1'        1.5350   14.5480   -3.8970 H      48  RU48        0.0000
   1089  H6         1.2040   11.2980   -2.1720 H      48  RU48        0.0000
   1090  H5        -0.3230    9.6010   -2.9140 H      48  RU48        0.0000
   1091  H3        -1.6320   12.2400   -6.0060 H      48  RU48        0.0000
   1092  H3'        3.1500   14.2730   -0.3420 H      48  RU48        0.0000
   1093  H2'        1.0450   13.6310   -0.8370 H      48  RU48        0.0000
   1094 H2''       -0.2380   14.3730   -1.8400 H      48  RU48        0.0000
   1095  P          4.2890   16.7330   -1.1570 P.3    49  RU49        0.0000
   1096  OP1        3.8970   18.1580   -1.2900 O.3    49  RU49        0.0000
   1097  OP2        5.5590   16.2470   -1.7580 O.2    49  RU49        0.0000
   1098  O5'        4.3160   16.3600    0.3880 O.3    49  RU49        0.0000
   1099  C5'        3.2470   16.7220    1.2510 C.3    49  RU49        0.0000
   1100  C4'        3.6130   16.5320    2.6990 C.3    49  RU49        0.0000
   1101  O4'        3.4540   15.1380    3.0760 O.3    49  RU49        0.0000
   1102  C3'        5.0460   16.9200    3.0770 C.3    49  RU49        0.0000
   1103  O3'        5.0370   17.5960    4.3300 O.3    49  RU49        0.0000
   1104  C2'        5.7410   15.5670    3.2430 C.3    49  RU49        0.0000
   1105  O2'        6.8340   15.5800    4.1340 O.3    49  RU49        0.0000
   1106  C1'        4.6040   14.7110    3.7790 C.3    49  RU49        0.0000
   1107  N1         4.7900   13.2600    3.6090 N.ar   49  RU49        0.0000
   1108  C2         4.5330   12.4750    4.7160 C.ar   49  RU49        0.0000
   1109  O2         4.1500   12.9480    5.7700 O.2    49  RU49        0.0000
   1110  N3         4.7280   11.1250    4.5440 N.ar   49  RU49        0.0000
   1111  C4         5.1580   10.4890    3.3930 C.ar   49  RU49        0.0000
   1112  O4         5.2890    9.2600    3.3870 O.2    49  RU49        0.0000
   1113  C5         5.4180   11.3690    2.2960 C.ar   49  RU49        0.0000
   1114  C6         5.2370   12.6930    2.4390 C.ar   49  RU49        0.0000
   1115  H5'        2.3630   16.1080    1.0200 H      49  RU49        0.0000
   1116 H5''        2.9920   17.7730    1.1120 H      49  RU49        0.0000
   1117  H4'        2.8980   17.0690    3.3340 H      49  RU49        0.0000
   1118  H1'        4.4280   14.8370    4.8540 H      49  RU49        0.0000
   1119  H6         5.4980   13.3380    1.6010 H      49  RU49        0.0000
   1120  H5         5.7620   10.9660    1.3480 H      49  RU49        0.0000
   1121  H3         4.5230   10.4840    5.4050 H      49  RU49        0.0000
   1122  H3'        5.5040   17.4660    2.2510 H      49  RU49        0.0000
   1123  H2'        6.5870   15.5070    2.5590 H      49  RU49        0.0000
   1124 H2''        7.0250   14.5870    4.0530 H      49  RU49        0.0000
   1125  P          6.0410   18.8230    4.5880 P.3    50  RC50        0.0000
   1126  OP1        5.5810   19.9870    3.7940 O.2    50  RC50        0.0000
   1127  OP2        7.4270   18.3170    4.4170 O.3    50  RC50        0.0000
   1128  O5'        5.8170   19.1690    6.1240 O.3    50  RC50        0.0000
   1129  C5'        4.6440   19.8430    6.5510 C.3    50  RC50        0.0000
   1130  C4'        4.3660   19.5710    8.0050 C.3    50  RC50        0.0000
   1131  O4'        3.7940   18.2450    8.1620 O.3    50  RC50        0.0000
   1132  C3'        5.5860   19.5600    8.9090 C.3    50  RC50        0.0000
   1133  O3'        5.9990   20.8580    9.2950 O.3    50  RC50        0.0000
   1134  C2'        5.1340   18.6870   10.0720 C.3    50  RC50        0.0000
   1135  O2'        4.3050   19.4130   10.9640 O.3    50  RC50        0.0000
   1136  C1'        4.2670   17.6540    9.3540 C.3    50  RC50        0.0000
   1137  N1         5.0270   16.4340    9.0020 N.ar   50  RC50        0.0000
   1138  C2         5.4210   15.5590   10.0120 C.ar   50  RC50        0.0000
   1139  O2         5.1350   15.8350   11.1760 O.2    50  RC50        0.0000
   1140  N3         6.1050   14.4330    9.7020 N.ar   50  RC50        0.0000
   1141  C4         6.3920   14.1630    8.4270 C.ar   50  RC50        0.0000
   1142  N4         7.0650   13.0400    8.1570 N.pl3  50  RC50        0.0000
   1143  C5         5.9950   15.0340    7.3700 C.ar   50  RC50        0.0000
   1144  C6         5.3200   16.1480    7.7020 C.ar   50  RC50        0.0000
   1145  H5'        3.7870   19.5080    5.9520 H      50  RC50        0.0000
   1146 H5''        4.7630   20.9210    6.4250 H      50  RC50        0.0000
   1147  H4'        3.5840   20.2500    8.3650 H      50  RC50        0.0000
   1148  H1'        3.4220   17.2760    9.9350 H      50  RC50        0.0000
   1149  H6         5.0040   16.8300    6.9220 H      50  RC50        0.0000
   1150  H5         6.2210   14.8230    6.3160 H      50  RC50        0.0000
   1151  H41        7.3240   12.4580    8.9320 H      50  RC50        0.0000
   1152  H42        7.2910   12.8110    7.2020 H      50  RC50        0.0000
   1153  H3'        6.4200   19.0790    8.3950 H      50  RC50        0.0000
   1154  H2'        5.8560   18.7510   10.8840 H      50  RC50        0.0000
   1155 H2''        4.0830   18.6340   11.5610 H      50  RC50        0.0000
   1156  P          7.5620   21.2260    9.3290 P.3    51  RU51        0.0000
   1157  OP1        7.7170   22.4930   10.0880 O.3    51  RU51        0.0000
   1158  OP2        8.0840   21.0960    7.9420 O.2    51  RU51        0.0000
   1159  O5'        8.2090   20.0940   10.2520 O.3    51  RU51        0.0000
   1160  C5'        7.9490   20.0660   11.6490 C.3    51  RU51        0.0000
   1161  C4'        8.4800   18.8100   12.2920 C.3    51  RU51        0.0000
   1162  O4'        7.8810   17.6460   11.6630 O.3    51  RU51        0.0000
   1163  C3'        9.9790   18.5720   12.1630 C.3    51  RU51        0.0000
   1164  O3'       10.7320   19.2920   13.1260 O.3    51  RU51        0.0000
   1165  C2'       10.0900   17.0640   12.3160 C.3    51  RU51        0.0000
   1166  O2'       10.0080   16.7020   13.6850 O.3    51  RU51        0.0000
   1167  C1'        8.8130   16.5880   11.6220 C.3    51  RU51        0.0000
   1168  N1         9.0350   16.2220   10.2070 N.ar   51  RU51        0.0000
   1169  C2         9.5730   14.9790    9.9600 C.ar   51  RU51        0.0000
   1170  O2         9.8770   14.2220   10.8600 O.2    51  RU51        0.0000
   1171  N3         9.7420   14.6670    8.6340 N.ar   51  RU51        0.0000
   1172  C4         9.4300   15.4740    7.5570 C.ar   51  RU51        0.0000
   1173  O4         9.6300   15.0670    6.4160 O.2    51  RU51        0.0000
   1174  C5         8.8650   16.7440    7.8980 C.ar   51  RU51        0.0000
   1175  C6         8.6910   17.0720    9.1820 C.ar   51  RU51        0.0000
   1176  H5'        6.8640   20.1270   11.8230 H      51  RU51        0.0000
   1177 H5''        8.4320   20.9130   12.1380 H      51  RU51        0.0000
   1178  H4'        8.1460   18.7600   13.3340 H      51  RU51        0.0000
   1179  H1'        8.3610   15.6980   12.0600 H      51  RU51        0.0000
   1180  H6         8.3040   18.0590    9.4170 H      51  RU51        0.0000
   1181  H5         8.5800   17.4360    7.1120 H      51  RU51        0.0000
   1182  H3        10.1630   13.6880    8.4050 H      51  RU51        0.0000
   1183  H3'       10.3100   18.8650   11.1650 H      51  RU51        0.0000
   1184  H2'       11.1360   16.7790   12.4210 H      51  RU51        0.0000
   1185 H2''       10.0150   15.7080   13.5320 H      51  RU51        0.0000
   1186  P         12.2400   19.7630   12.8080 P.3    52  RA52        0.0000
   1187  OP1       12.6860   20.5140   13.9990 O.3    52  RA52        0.0000
   1188  OP2       12.3660   20.3800   11.4680 O.2    52  RA52        0.0000
   1189  O5'       13.0570   18.3980   12.7380 O.3    52  RA52        0.0000
   1190  C5'       13.1400   17.5320   13.8590 C.3    52  RA52        0.0000
   1191  C4'       13.8470   16.2500   13.4940 C.3    52  RA52        0.0000
   1192  O4'       13.0580   15.5190   12.5200 O.3    52  RA52        0.0000
   1193  C3'       15.2040   16.4250   12.8270 C.3    52  RA52        0.0000
   1194  O3'       16.2360   16.6080   13.7830 O.3    52  RA52        0.0000
   1195  C2'       15.3530   15.1410   12.0200 C.3    52  RA52        0.0000
   1196  O2'       15.7690   14.0860   12.8740 O.3    52  RA52        0.0000
   1197  C1'       13.9050   14.8700   11.5970 C.3    52  RA52        0.0000
   1198  N9        13.5810   15.3630   10.2400 N.ar   52  RA52        0.0000
   1199  C8        13.0330   16.5760    9.9080 C.ar   52  RA52        0.0000
   1200  N7        12.8320   16.7330    8.6190 N.ar   52  RA52        0.0000
   1201  C5        13.2690   15.5410    8.0580 C.ar   52  RA52        0.0000
   1202  C6        13.3260   15.0820    6.7250 C.3    52  RA52        0.0000
   1203  N6        12.9240   15.7920    5.6690 N.3    52  RA52        0.0000
   1204  N1        13.8150   13.8440    6.5020 N.2    52  RA52        0.0000
   1205  C2        14.2220   13.1280    7.5600 C.2    52  RA52        0.0000
   1206  N3        14.2180   13.4500    8.8520 N.pl3  52  RA52        0.0000
   1207  C4        13.7280   14.6880    9.0420 C.ar   52  RA52        0.0000
   1208  H5'       12.1320   17.2950   14.2190 H      52  RA52        0.0000
   1209 H5''       13.6990   18.0130   14.6640 H      52  RA52        0.0000
   1210  H4'       13.8850   15.5900   14.3670 H      52  RA52        0.0000
   1211  H1'       13.6490   13.8110   11.5580 H      52  RA52        0.0000
   1212  H8        12.8520   17.3170   10.6670 H      52  RA52        0.0000
   1213  H61       12.9910   15.4070    4.7430 H      52  RA52        0.0000
   1214  H62       12.5490   16.7240    5.8010 H      52  RA52        0.0000
   1215  H2        14.6230   12.1370    7.4160 H      52  RA52        0.0000
   1216  H3'       15.1710   17.2800   12.1490 H      52  RA52        0.0000
   1217  H2'       16.3630   15.0720   11.6210 H      52  RA52        0.0000
   1218 H2''       15.7110   13.3600   12.1790 H      52  RA52        0.0000
   1219  P         17.4230   17.6590   13.5310 P.3    53  RC53        0.0000
   1220  OP1       18.2590   17.6340   14.7550 O.3    53  RC53        0.0000
   1221  OP2       16.8590   18.9340   13.0360 O.2    53  RC53        0.0000
   1222  O5'       18.2970   17.0110   12.3600 O.3    53  RC53        0.0000
   1223  C5'       19.0170   15.8030   12.5720 C.3    53  RC53        0.0000
   1224  C4'       19.4300   15.1550   11.2710 C.3    53  RC53        0.0000
   1225  O4'       18.2490   14.7340   10.5380 O.3    53  RC53        0.0000
   1226  C3'       20.1970   16.0290   10.2850 C.3    53  RC53        0.0000
   1227  O3'       21.5860   16.0850   10.5700 O.3    53  RC53        0.0000
   1228  C2'       19.8920   15.3640    8.9450 C.3    53  RC53        0.0000
   1229  O2'       20.6960   14.2110    8.7610 O.3    53  RC53        0.0000
   1230  C1'       18.4490   14.9060    9.1500 C.3    53  RC53        0.0000
   1231  N1        17.4890   15.9130    8.6320 N.ar   53  RC53        0.0000
   1232  C2        16.9890   15.7640    7.3290 C.ar   53  RC53        0.0000
   1233  O2        17.3390   14.7870    6.6490 O.2    53  RC53        0.0000
   1234  N3        16.1300   16.6840    6.8250 N.ar   53  RC53        0.0000
   1235  C4        15.7700   17.7240    7.5740 C.ar   53  RC53        0.0000
   1236  N4        14.9220   18.6080    7.0460 N.pl3  53  RC53        0.0000
   1237  C5        16.2580   17.9110    8.9020 C.ar   53  RC53        0.0000
   1238  C6        17.1070   16.9960    9.3860 C.ar   53  RC53        0.0000
   1239  H5'       18.3920   15.0970   13.1400 H      53  RC53        0.0000
   1240 H5''       19.9270   16.0040   13.1390 H      53  RC53        0.0000
   1241  H4'       19.9690   14.2260   11.4790 H      53  RC53        0.0000
   1242  H1'       18.1690   13.9870    8.6230 H      53  RC53        0.0000
   1243  H6        17.5030   17.1050   10.3870 H      53  RC53        0.0000
   1244  H5        15.9600   18.7690    9.5210 H      53  RC53        0.0000
   1245  H41       14.6020   18.4390    6.1070 H      53  RC53        0.0000
   1246  H42       14.6280   19.4050    7.5860 H      53  RC53        0.0000
   1247  H3'       19.7840   17.0380   10.2930 H      53  RC53        0.0000
   1248  H2'       20.5320   15.7880    8.1720 H      53  RC53        0.0000
   1249 H2''       20.2720   13.9210    7.8960 H      53  RC53        0.0000
   1250  P         22.2710   17.4070   11.1670 P.3    54  RC54        0.0000
   1251  OP1       21.2990   18.5520   11.1920 O.3    54  RC54        0.0000
   1252  OP2       23.5800   17.5300   10.4950 O.2    54  RC54        0.0000
   1253  O5'       22.5010   17.0750   12.7000 O.3    54  RC54        0.0000
   1254  C5'       23.4590   16.1210   13.1090 C.3    54  RC54        0.0000
   1255  C4'       22.8660   15.2160   14.1460 C.3    54  RC54        0.0000
   1256  O4'       21.8600   14.3690   13.5310 O.3    54  RC54        0.0000
   1257  C3'       23.8280   14.2340   14.7960 C.3    54  RC54        0.0000
   1258  O3'       24.5990   14.8220   15.8300 O.3    54  RC54        0.0000
   1259  C2'       22.8920   13.1330   15.2710 C.3    54  RC54        0.0000
   1260  O2'       22.1900   13.5370   16.4340 O.3    54  RC54        0.0000
   1261  C1'       21.8910   13.0810   14.1160 C.3    54  RC54        0.0000
   1262  N1        22.3020   12.1010   13.0860 N.ar   54  RC54        0.0000
   1263  C2        22.1870   10.7420   13.3900 C.ar   54  RC54        0.0000
   1264  O2        21.7380   10.4040   14.4960 O.2    54  RC54        0.0000
   1265  N3        22.5640    9.8240   12.4720 N.ar   54  RC54        0.0000
   1266  C4        23.0600   10.2010   11.2970 C.ar   54  RC54        0.0000
   1267  N4        23.4080    9.2420   10.4300 N.pl3  54  RC54        0.0000
   1268  C5        23.1840   11.5780   10.9490 C.ar   54  RC54        0.0000
   1269  C6        22.7980   12.4840   11.8680 C.ar   54  RC54        0.0000
   1270  H5'       24.3330   16.6290   13.5300 H      54  RC54        0.0000
   1271 H5''       23.7790   15.5170   12.2550 H      54  RC54        0.0000
   1272  H4'       22.3100   15.8070   14.8820 H      54  RC54        0.0000
   1273  H1'       20.8740   12.7750   14.3770 H      54  RC54        0.0000
   1274  H6        22.8810   13.5400   11.6400 H      54  RC54        0.0000
   1275  H5        23.5740   11.9110    9.9810 H      54  RC54        0.0000
   1276  H41       23.3030    8.2920   10.7210 H      54  RC54        0.0000
   1277  H42       23.7620    9.5000    9.5210 H      54  RC54        0.0000
   1278  H3'       24.5090   13.8360   14.0440 H      54  RC54        0.0000
   1279  H2'       23.4160   12.4670   15.9500 H      54  RC54        0.0000
   1280 H2''       21.5990   12.7260   16.4920 H      54  RC54        0.0000
   1281  P         26.1150   14.3400   16.1110 P.3    55  RG55        0.0000
   1282  OP1       26.6840   15.3600   17.0350 O.3    55  RG55        0.0000
   1283  OP2       26.8670   14.0610   14.8690 O.2    55  RG55        0.0000
   1284  O5'       25.9410   12.9740   16.8870 O.3    55  RG55        0.0000
   1285  C5'       25.3990   12.9430   18.1940 C.3    55  RG55        0.0000
   1286  C4'       25.2820   11.5270   18.7020 C.3    55  RG55        0.0000
   1287  O4'       24.3550   10.7770   17.8740 O.3    55  RG55        0.0000
   1288  C3'       26.5560   10.6940   18.6670 C.3    55  RG55        0.0000
   1289  O3'       27.4230   10.9600   19.7560 O.3    55  RG55        0.0000
   1290  C2'       26.0200    9.2730   18.6520 C.3    55  RG55        0.0000
   1291  O2'       25.5890    8.8870   19.9480 O.3    55  RG55        0.0000
   1292  C1'       24.7810    9.4310   17.7730 C.3    55  RG55        0.0000
   1293  N9        25.0530    9.1370   16.3540 N.ar   55  RG55        0.0000
   1294  C8        25.2210   10.0590   15.3540 C.ar   55  RG55        0.0000
   1295  N7        25.4270    9.5260   14.1840 N.ar   55  RG55        0.0000
   1296  C5        25.3890    8.1620   14.4270 C.ar   55  RG55        0.0000
   1297  C6        25.5360    7.0810   13.5250 C.ar   55  RG55        0.0000
   1298  O6        25.7420    7.1500   12.3090 O.2    55  RG55        0.0000
   1299  N1        25.4330    5.8460   14.1710 N.ar   55  RG55        0.0000
   1300  C2        25.1990    5.6850   15.5150 C.ar   55  RG55        0.0000
   1301  N2        25.1210    4.4220   15.9650 N.pl3  55  RG55        0.0000
   1302  N3        25.0490    6.6990   16.3690 N.ar   55  RG55        0.0000
   1303  C4        25.1590    7.8980   15.7580 C.ar   55  RG55        0.0000
   1304  H5'       24.4020   13.4060   18.1940 H      55  RG55        0.0000
   1305 H5''       26.0430   13.4950   18.8830 H      55  RG55        0.0000
   1306  H4'       24.8200   11.5300   19.6960 H      55  RG55        0.0000
   1307  H1'       23.9500    8.7680   18.0250 H      55  RG55        0.0000
   1308  H8        25.1750   11.1150   15.5750 H      55  RG55        0.0000
   1309  H1        25.5370    5.0250   13.6150 H      55  RG55        0.0000
   1310  H21       25.2060    3.5810   15.4100 H      55  RG55        0.0000
   1311  H22       24.9410    4.3020   16.9470 H      55  RG55        0.0000
   1312  H3'       27.0960   10.8920   17.7400 H      55  RG55        0.0000
   1313  H2'       26.8290    8.5690   18.8340 H      55  RG55        0.0000
   1314 H2''       25.2120    7.9960   19.6740 H      55  RG55        0.0000
   1315  P         29.0110   10.8770   19.5520 P.3    56  RG56        0.0000
   1316  OP1       29.6090   11.5570   20.7310 O.3    56  RG56        0.0000
   1317  OP2       29.4200   11.2500   18.1790 O.2    56  RG56        0.0000
   1318  O5'       29.3150    9.3190   19.6660 O.3    56  RG56        0.0000
   1319  C5'       29.0810    8.6220   20.8780 C.3    56  RG56        0.0000
   1320  C4'       29.1290    7.1320   20.6580 C.3    56  RG56        0.0000
   1321  O4'       28.0500    6.7310   19.7710 O.3    56  RG56        0.0000
   1322  C3'       30.3710    6.5970   19.9690 C.3    56  RG56        0.0000
   1323  O3'       31.4770    6.4660   20.8360 O.3    56  RG56        0.0000
   1324  C2'       29.8710    5.2770   19.4270 C.3    56  RG56        0.0000
   1325  O2'       29.6890    4.3780   20.5100 O.3    56  RG56        0.0000
   1326  C1'       28.4950    5.6940   18.9270 C.3    56  RG56        0.0000
   1327  N9        28.5520    6.2320   17.5520 N.ar   56  RG56        0.0000
   1328  C8        28.5780    7.5640   17.1930 C.ar   56  RG56        0.0000
   1329  N7        28.6260    7.7480   15.9060 N.ar   56  RG56        0.0000
   1330  C5        28.6290    6.4610   15.3770 C.ar   56  RG56        0.0000
   1331  C6        28.6750    6.0180   14.0280 C.ar   56  RG56        0.0000
   1332  O6        28.7110    6.7030   12.9950 O.2    56  RG56        0.0000
   1333  N1        28.6770    4.6180   13.9430 N.ar   56  RG56        0.0000
   1334  C2        28.6280    3.7570   15.0100 C.ar   56  RG56        0.0000
   1335  N2        28.6400    2.4380   14.7380 N.pl3  56  RG56        0.0000
   1336  N3        28.5860    4.1600   16.2650 N.ar   56  RG56        0.0000
   1337  C4        28.5910    5.5120   16.3770 C.ar   56  RG56        0.0000
   1338  H5'       28.0960    8.8940   21.2770 H      56  RG56        0.0000
   1339 H5''       29.8440    8.8820   21.6150 H      56  RG56        0.0000
   1340  H4'       28.9160    6.6130   21.5990 H      56  RG56        0.0000
   1341  H1'       27.7330    4.9150   18.8710 H      56  RG56        0.0000
   1342  H8        28.5570    8.3280   17.9510 H      56  RG56        0.0000
   1343  H1        28.7180    4.2180   13.0250 H      56  RG56        0.0000
   1344  H21       28.6700    2.0250   13.8150 H      56  RG56        0.0000
   1345  H22       28.5950    1.8140   15.5200 H      56  RG56        0.0000
   1346  H3'       30.6440    7.2540   19.1450 H      56  RG56        0.0000
   1347  H2'       30.7050    4.6440   19.1470 H      56  RG56        0.0000
   1348 H2''       29.2530    3.6490   19.9720 H      56  RG56        0.0000
   1349  P         32.9650    6.4070   20.2440 P.3    57  RG57        0.0000
   1350  OP1       33.8240    6.4290   21.4550 O.3    57  RG57        0.0000
   1351  OP2       33.1510    7.4080   19.1630 O.2    57  RG57        0.0000
   1352  O5'       33.0650    4.9870   19.5230 O.3    57  RG57        0.0000
   1353  C5'       32.9500    3.7810   20.2680 C.3    57  RG57        0.0000
   1354  C4'       32.9530    2.5640   19.3700 C.3    57  RG57        0.0000
   1355  O4'       31.7960    2.5830   18.4860 O.3    57  RG57        0.0000
   1356  C3'       34.1400    2.4270   18.4260 C.3    57  RG57        0.0000
   1357  O3'       35.2780    1.8720   19.0590 O.3    57  RG57        0.0000
   1358  C2'       33.5820    1.5350   17.3290 C.3    57  RG57        0.0000
   1359  O2'       33.5280    0.1880   17.7840 O.3    57  RG57        0.0000
   1360  C1'       32.1550    2.0710   17.2200 C.3    57  RG57        0.0000
   1361  N9        32.0440    3.1600   16.2220 N.ar   57  RG57        0.0000
   1362  C8        31.8850    4.5110   16.4690 C.ar   57  RG57        0.0000
   1363  N7        31.8030    5.2200   15.3700 N.ar   57  RG57        0.0000
   1364  C5        31.9330    4.2940   14.3430 C.ar   57  RG57        0.0000
   1365  C6        31.9200    4.4850   12.9320 C.ar   57  RG57        0.0000
   1366  O6        31.8000    5.5440   12.2960 O.2    57  RG57        0.0000
   1367  N1        32.0690    3.2810   12.2570 N.ar   57  RG57        0.0000
   1368  C2        32.2100    2.0370   12.8500 C.ar   57  RG57        0.0000
   1369  N2        32.3370    0.9900   12.0120 N.pl3  57  RG57        0.0000
   1370  N3        32.2200    1.8460   14.1700 N.ar   57  RG57        0.0000
   1371  C4        32.0750    3.0120   14.8500 C.ar   57  RG57        0.0000
   1372  H5'       32.0150    3.7940   20.8480 H      57  RG57        0.0000
   1373 H5''       33.7910    3.6840   20.9560 H      57  RG57        0.0000
   1374  H4'       32.8180    1.6600   19.9760 H      57  RG57        0.0000
   1375  H1'       31.4070    1.3430   16.8950 H      57  RG57        0.0000
   1376  H8        31.8390    4.8790   17.4740 H      57  RG57        0.0000
   1377  H1        32.0760    3.3070   11.2540 H      57  RG57        0.0000
   1378  H21       32.3280    1.0230   11.0040 H      57  RG57        0.0000
   1379  H22       32.4310    0.0830   12.4380 H      57  RG57        0.0000
   1380  H3'       34.3910    3.4040   18.0120 H      57  RG57        0.0000
   1381  H2'       34.3870    1.1730   16.6980 H      57  RG57        0.0000
   1382 H2''       33.0510   -0.1710   16.9730 H      57  RG57        0.0000
   1383  P         36.7550    2.3540   18.6700 P.3    58  RC58        0.0000
   1384  OP1       37.6890    1.4900   19.4320 O.3    58  RC58        0.0000
   1385  OP2       36.8300    3.8420   18.7460 O.2    58  RC58        0.0000
   1386  O5'       36.9080    1.9620   17.1360 O.3    58  RC58        0.0000
   1387  C5'       37.1730    0.6270   16.7460 C.3    58  RC58        0.0000
   1388  C4'       37.0560    0.4570   15.2510 C.3    58  RC58        0.0000
   1389  O4'       35.7740    0.9580   14.7840 O.3    58  RC58        0.0000
   1390  C3'       38.0600    1.2120   14.3980 C.3    58  RC58        0.0000
   1391  O3'       39.3460    0.6180   14.3640 O.3    58  RC58        0.0000
   1392  C2'       37.3610    1.2290   13.0500 C.3    58  RC58        0.0000
   1393  O2'       37.4070   -0.0610   12.4640 O.3    58  RC58        0.0000
   1394  C1'       35.9200    1.4910   13.4820 C.3    58  RC58        0.0000
   1395  N1        35.6180    2.9440   13.5170 N.ar   58  RC58        0.0000
   1396  C2        35.3820    3.5720   12.2970 C.ar   58  RC58        0.0000
   1397  O2        35.4340    2.8750   11.2660 O.2    58  RC58        0.0000
   1398  N3        35.1150    4.9010   12.2880 N.ar   58  RC58        0.0000
   1399  C4        35.0700    5.6050   13.4290 C.ar   58  RC58        0.0000
   1400  N4        34.7970    6.9140   13.3630 N.pl3  58  RC58        0.0000
   1401  C5        35.3100    4.9880   14.6940 C.ar   58  RC58        0.0000
   1402  C6        35.5810    3.6730   14.6830 C.ar   58  RC58        0.0000
   1403  H5'       36.4620   -0.0520   17.2390 H      58  RC58        0.0000
   1404 H5''       38.1880    0.3440   17.0350 H      58  RC58        0.0000
   1405  H4'       37.0390   -0.6110   15.0020 H      58  RC58        0.0000
   1406  H1'       35.1430    1.0810   12.8300 H      58  RC58        0.0000
   1407  H6        35.7780    3.1630   15.6230 H      58  RC58        0.0000
   1408  H5        35.2800    5.5400   15.6360 H      58  RC58        0.0000
   1409  H41       34.6350    7.3050   12.4540 H      58  RC58        0.0000
   1410  H42       34.7620    7.4590   14.2080 H      58  RC58        0.0000
   1411  H3'       38.1640    2.2290   14.7690 H      58  RC58        0.0000
   1412  H2'       38.0610    1.5060   12.2690 H      58  RC58        0.0000
   1413 H2''       36.8190    0.1540   11.6780 H      58  RC58        0.0000
   1414  P         40.6530    1.5350   14.1970 P.3    59  RA59        0.0000
   1415  OP1       41.8150    0.6340   14.4010 O.2    59  RA59        0.0000
   1416  OP2       40.4950    2.7610   15.0030 O.3    59  RA59        0.0000
   1417  O5'       40.6230    1.9850   12.6610 O.3    59  RA59        0.0000
   1418  C5'       40.6200    1.0160   11.6160 C.3    59  RA59        0.0000
   1419  C4'       40.2830    1.6420   10.2790 C.3    59  RA59        0.0000
   1420  O4'       38.9840    2.2800   10.3560 O.3    59  RA59        0.0000
   1421  C3'       41.2240    2.7430    9.7940 C.3    59  RA59        0.0000
   1422  O3'       42.3310    2.2120    9.0820 O.3    59  RA59        0.0000
   1423  C2'       40.3310    3.6010    8.9100 C.3    59  RA59        0.0000
   1424  O2'       40.2120    3.0360    7.6080 O.3    59  RA59        0.0000
   1425  C1'       38.9850    3.4770    9.6120 C.3    59  RA59        0.0000
   1426  N9        38.7170    4.5960   10.5300 N.ar   59  RA59        0.0000
   1427  C8        38.7000    4.5960   11.9020 C.ar   59  RA59        0.0000
   1428  N7        38.3870    5.7560   12.4200 N.ar   59  RA59        0.0000
   1429  C5        38.1850    6.5600   11.3090 C.ar   59  RA59        0.0000
   1430  C6        37.8250    7.9010   11.1770 C.3    59  RA59        0.0000
   1431  N6        37.5950    8.7030   12.2270 N.3    59  RA59        0.0000
   1432  N1        37.7100    8.3940    9.9180 N.2    59  RA59        0.0000
   1433  C2        37.9320    7.5940    8.8780 C.2    59  RA59        0.0000
   1434  N3        38.2700    6.3100    8.8760 N.pl3  59  RA59        0.0000
   1435  C4        38.3800    5.8580   10.1370 C.ar   59  RA59        0.0000
   1436  H5'       39.8810    0.2350   11.8410 H      59  RA59        0.0000
   1437 H5''       41.6060    0.5570   11.5300 H      59  RA59        0.0000
   1438  H4'       40.1610    0.8550    9.5290 H      59  RA59        0.0000
   1439  H1'       38.1290    3.4780    8.9360 H      59  RA59        0.0000
   1440  H8        38.9770    3.7130   12.4490 H      59  RA59        0.0000
   1441  H61       37.3360    9.6710   12.0740 H      59  RA59        0.0000
   1442  H62       37.6790    8.3450   13.1660 H      59  RA59        0.0000
   1443  H2        37.8440    7.9690    7.8740 H      59  RA59        0.0000
   1444  H3'       41.5670    3.3310   10.6490 H      59  RA59        0.0000
   1445  H2'       40.9370    4.3460    8.3890 H      59  RA59        0.0000
   1446 H2''       39.5470    3.7100    7.2660 H      59  RA59        0.0000
   1447  P         43.7580    2.9520    9.0510 P.3    60  RC60        0.0000
   1448  OP1       44.5820    2.1120    8.1410 O.2    60  RC60        0.0000
   1449  OP2       44.2140    3.2860   10.4150 O.3    60  RC60        0.0000
   1450  O5'       43.4790    4.3870    8.3950 O.3    60  RC60        0.0000
   1451  C5'       43.1040    4.5480    7.0340 C.3    60  RC60        0.0000
   1452  C4'       42.7210    5.9850    6.7520 C.3    60  RC60        0.0000
   1453  O4'       41.5020    6.3220    7.4740 O.3    60  RC60        0.0000
   1454  C3'       43.7290    7.0290    7.2160 C.3    60  RC60        0.0000
   1455  O3'       44.7900    7.2070    6.2960 O.3    60  RC60        0.0000
   1456  C2'       42.8640    8.2690    7.4070 C.3    60  RC60        0.0000
   1457  O2'       42.5660    8.8620    6.1480 O.3    60  RC60        0.0000
   1458  C1'       41.5740    7.6520    7.9500 C.3    60  RC60        0.0000
   1459  N1        41.4990    7.6400    9.4330 N.ar   60  RC60        0.0000
   1460  C2        41.1010    8.8000   10.1080 C.ar   60  RC60        0.0000
   1461  O2        40.8380    9.8180    9.4610 O.2    60  RC60        0.0000
   1462  N3        41.0090    8.7970   11.4530 N.ar   60  RC60        0.0000
   1463  C4        41.2840    7.6880   12.1520 C.ar   60  RC60        0.0000
   1464  N4        41.1700    7.7440   13.4860 N.pl3  60  RC60        0.0000
   1465  C5        41.7040    6.4900   11.5010 C.ar   60  RC60        0.0000
   1466  C6        41.7910    6.5090   10.1580 C.ar   60  RC60        0.0000
   1467  H5'       42.2500    3.9000    6.8050 H      60  RC60        0.0000
   1468 H5''       43.9380    4.2790    6.3820 H      60  RC60        0.0000
   1469  H4'       42.4520    6.0920    5.6970 H      60  RC60        0.0000
   1470  H1'       40.6740    8.1970    7.6500 H      60  RC60        0.0000
   1471  H6        42.0980    5.6130    9.6310 H      60  RC60        0.0000
   1472  H5        41.9520    5.5750   12.0530 H      60  RC60        0.0000
   1473  H41       40.8730    8.6040   13.8910 H      60  RC60        0.0000
   1474  H42       41.3850    6.9240   14.0350 H      60  RC60        0.0000
   1475  H3'       44.1520    6.7280    8.1760 H      60  RC60        0.0000
   1476  H2'       43.4960    9.1420    7.5510 H      60  RC60        0.0000
   1477 H2''       41.9400    9.5620    6.5070 H      60  RC60        0.0000
   1478  P         46.2500    7.6610    6.7960 P.3    61  RC61        0.0000
   1479  OP1       47.1160    7.4030    5.6190 O.2    61  RC61        0.0000
   1480  OP2       46.5910    7.1450    8.1500 O.3    61  RC61        0.0000
   1481  O5'       46.1260    9.2360    6.9840 O.3    61  RC61        0.0000
   1482  C5'       45.7540   10.0640    5.8880 C.3    61  RC61        0.0000
   1483  C4'       45.2570   11.4060    6.3660 C.3    61  RC61        0.0000
   1484  O4'       44.1380   11.2250    7.2710 O.3    61  RC61        0.0000
   1485  C3'       46.2530   12.2250    7.1650 C.3    61  RC61        0.0000
   1486  O3'       47.1480   12.9250    6.3210 O.3    61  RC61        0.0000
   1487  C2'       45.3550   13.1370    7.9930 C.3    61  RC61        0.0000
   1488  O2'       44.8920   14.2200    7.1960 O.3    61  RC61        0.0000
   1489  C1'       44.1580   12.2260    8.2660 C.3    61  RC61        0.0000
   1490  N1        44.1590   11.5700    9.5950 N.ar   61  RC61        0.0000
   1491  C2        43.6900   12.2480   10.7380 C.ar   61  RC61        0.0000
   1492  O2        43.3210   13.4380   10.6520 O.2    61  RC61        0.0000
   1493  N3        43.6440   11.5850   11.9190 N.ar   61  RC61        0.0000
   1494  C4        44.0300   10.3060   11.9950 C.ar   61  RC61        0.0000
   1495  N4        43.9770    9.6810   13.1800 N.pl3  61  RC61        0.0000
   1496  C5        44.4990    9.6060   10.8510 C.ar   61  RC61        0.0000
   1497  C6        44.5320   10.2630    9.6830 C.ar   61  RC61        0.0000
   1498  H5'       44.9620    9.5730    5.3080 H      61  RC61        0.0000
   1499 H5''       46.6150   10.2340    5.2390 H      61  RC61        0.0000
   1500  H4'       44.8390   11.9650    5.5210 H      61  RC61        0.0000
   1501  H1'       43.2140   12.7770    8.2500 H      61  RC61        0.0000
   1502  H6        44.8620    9.7440    8.7890 H      61  RC61        0.0000
   1503  H5        44.8300    8.5560   10.8970 H      61  RC61        0.0000
   1504  H41       43.6390   10.2120   13.9650 H      61  RC61        0.0000
   1505  H42       44.2690    8.7220   13.2520 H      61  RC61        0.0000
   1506  H3'       46.8190   11.5700    7.8310 H      61  RC61        0.0000
   1507  H2'       45.9600   13.8920    8.4940 H      61  RC61        0.0000
   1508 H2''       44.2800   14.6120    7.8890 H      61  RC61        0.0000
   1509  P         48.7040   12.5460    6.2830 P.3    62  RG62        0.0000
   1510  OP1       49.2750   13.1620    5.0560 O.2    62  RG62        0.0000
   1511  OP2       48.8610   11.0940    6.5480 O.3    62  RG62        0.0000
   1512  O5'       49.2950   13.3100    7.5420 O.3    62  RG62        0.0000
   1513  C5'       50.6810   13.6010    7.6490 C.3    62  RG62        0.0000
   1514  C4'       51.0050   14.1340    9.0210 C.3    62  RG62        0.0000
   1515  O4'       50.7100   13.1100   10.0080 O.3    62  RG62        0.0000
   1516  C3'       52.4560   14.5470    9.2550 C.3    62  RG62        0.0000
   1517  O3'       52.4660   15.6380   10.1640 O.3    62  RG62        0.0000
   1518  C2'       53.0470   13.3260    9.9500 C.3    62  RG62        0.0000
   1519  O2'       54.1680   13.6120   10.7610 O.3    62  RG62        0.0000
   1520  C1'       51.8610   12.8480   10.7850 C.3    62  RG62        0.0000
   1521  N9        51.8620   11.4170   11.0980 N.ar   62  RG62        0.0000
   1522  C8        52.2860   10.3740   10.3120 C.ar   62  RG62        0.0000
   1523  N7        52.1270    9.2120   10.8900 N.ar   62  RG62        0.0000
   1524  C5        51.5550    9.5030   12.1260 C.ar   62  RG62        0.0000
   1525  C6        51.1520    8.6490   13.1890 C.ar   62  RG62        0.0000
   1526  O6        51.2300    7.4060   13.2500 O.2    62  RG62        0.0000
   1527  N1        50.6190    9.3830   14.2530 N.ar   62  RG62        0.0000
   1528  C2        50.4910   10.7550   14.2930 C.ar   62  RG62        0.0000
   1529  N2        49.9530   11.2950   15.4010 N.pl3  62  RG62        0.0000
   1530  N3        50.8590   11.5500   13.3020 N.ar   62  RG62        0.0000
   1531  C4        51.3810   10.8630   12.2640 C.ar   62  RG62        0.0000
   1532  H5'       50.9610   14.3480    6.8980 H      62  RG62        0.0000
   1533 H5''       51.2680   12.6950    7.4830 H      62  RG62        0.0000
   1534  H4'       50.3260   14.9540    9.2670 H      62  RG62        0.0000
   1535  H1'       51.7600   13.3340   11.7560 H      62  RG62        0.0000
   1536  H8        52.6940   10.5530    9.3360 H      62  RG62        0.0000
   1537  H1        50.3040    8.8690   15.0530 H      62  RG62        0.0000
   1538  H21       49.6220   10.7790   16.2070 H      62  RG62        0.0000
   1539  H22       49.8540   12.2900   15.4200 H      62  RG62        0.0000
   1540  H3'       52.9520   14.6960    8.2950 H      62  RG62        0.0000
   1541  H2'       53.8650   12.9240    9.3550 H      62  RG62        0.0000
   1542 H2''       54.2790   12.6570   11.0890 H      62  RG62        0.0000
   1543  P         53.1740   17.0210    9.7650 P.3    63  RU63        0.0000
   1544  OP1       53.2810   17.0800    8.2850 O.2    63  RU63        0.0000
   1545  OP2       54.3610   17.1710   10.6440 O.3    63  RU63        0.0000
   1546  O5'       52.1190   18.1210   10.1990 O.3    63  RU63        0.0000
   1547  C5'       50.9210   18.3180    9.4560 C.3    63  RU63        0.0000
   1548  C4'       49.9390   19.1330   10.2520 C.3    63  RU63        0.0000
   1549  O4'       49.0890   18.2250   11.0100 O.3    63  RU63        0.0000
   1550  C3'       50.5940   20.0620   11.2740 C.3    63  RU63        0.0000
   1551  O3'       49.8220   21.2500   11.4140 O.3    63  RU63        0.0000
   1552  C2'       50.5310   19.2430   12.5620 C.3    63  RU63        0.0000
   1553  O2'       50.5690   20.0050   13.7500 O.3    63  RU63        0.0000
   1554  C1'       49.2000   18.5100   12.3930 C.3    63  RU63        0.0000
   1555  N1        49.1160   17.2480   13.1470 N.ar   63  RU63        0.0000
   1556  C2        48.3990   17.2640   14.3250 C.ar   63  RU63        0.0000
   1557  O2        47.8490   18.2690   14.7460 O.2    63  RU63        0.0000
   1558  N3        48.3590   16.0700   14.9990 N.ar   63  RU63        0.0000
   1559  C4        48.9510   14.8810   14.6200 C.ar   63  RU63        0.0000
   1560  O4        48.8300   13.8840   15.3390 O.2    63  RU63        0.0000
   1561  C5        49.6730   14.9420   13.3890 C.ar   63  RU63        0.0000
   1562  C6        49.7330   16.0990   12.7130 C.ar   63  RU63        0.0000
   1563  H5'       50.4740   17.3480    9.2150 H      63  RU63        0.0000
   1564 H5''       51.1410   18.8480    8.5280 H      63  RU63        0.0000
   1565  H4'       49.2530   19.6470    9.5780 H      63  RU63        0.0000
   1566  H1'       48.3190   19.0730   12.7080 H      63  RU63        0.0000
   1567  H6        50.3330   16.1300   11.8040 H      63  RU63        0.0000
   1568  H5        50.1680   14.0580   13.0050 H      63  RU63        0.0000
   1569  H3        47.7980   16.0540   15.9390 H      63  RU63        0.0000
   1570  H3'       51.6360   20.2290   10.9990 H      63  RU63        0.0000
   1571  H2'       51.5380   19.0690   12.9350 H      63  RU63        0.0000
   1572 H2''       50.4810   19.1980   14.3640 H      63  RU63        0.0000
   1573  P         50.2970   22.6150   10.7000 P.3    64  RA64        0.0000
   1574  OP1       51.7800   22.5990   10.5840 O.2    64  RA64        0.0000
   1575  OP2       49.5900   23.7250   11.3860 O.3    64  RA64        0.0000
   1576  O5'       49.7250   22.4960    9.2170 O.3    64  RA64        0.0000
   1577  C5'       48.4390   22.9970    8.9090 C.3    64  RA64        0.0000
   1578  C4'       47.7800   22.2420    7.7850 C.3    64  RA64        0.0000
   1579  O4'       47.9180   20.8130    7.9890 O.3    64  RA64        0.0000
   1580  C3'       46.2860   22.4910    7.6780 C.3    64  RA64        0.0000
   1581  O3'       46.0250   23.6130    6.8560 O.3    64  RA64        0.0000
   1582  C2'       45.7280   21.1820    7.1290 C.3    64  RA64        0.0000
   1583  O2'       45.8110   21.1580    5.7120 O.3    64  RA64        0.0000
   1584  C1'       46.7090   20.1500    7.6920 C.3    64  RA64        0.0000
   1585  N9        46.2700   19.5050    8.9470 N.ar   64  RA64        0.0000
   1586  C8        45.6680   20.0330   10.0660 C.ar   64  RA64        0.0000
   1587  N7        45.4860   19.1550   11.0370 N.ar   64  RA64        0.0000
   1588  C5        46.0320   17.9790   10.5270 C.ar   64  RA64        0.0000
   1589  C6        46.1750   16.6800   11.0500 C.3    64  RA64        0.0000
   1590  N6        45.7430   16.3220   12.2560 N.3    64  RA64        0.0000
   1591  N1        46.7630   15.7390   10.2740 N.2    64  RA64        0.0000
   1592  C2        47.1930   16.0930    9.0530 C.2    64  RA64        0.0000
   1593  N3        47.1170   17.2850    8.4580 N.pl3  64  RA64        0.0000
   1594  C4        46.5230   18.1880    9.2500 C.ar   64  RA64        0.0000
   1595  H5'       48.5150   24.0630    8.6280 H      64  RA64        0.0000
   1596 H5''       47.7810   22.9110    9.7750 H      64  RA64        0.0000
   1597  H4'       48.3140   22.4370    6.8460 H      64  RA64        0.0000
   1598  H1'       46.9110   19.3190    7.0270 H      64  RA64        0.0000
   1599  H8        45.3470   21.0570   10.0800 H      64  RA64        0.0000
   1600  H61       45.8730   15.3720   12.5810 H      64  RA64        0.0000
   1601  H62       45.2830   16.9960   12.8540 H      64  RA64        0.0000
   1602  H2        47.6700   15.3750    8.4160 H      64  RA64        0.0000
   1603  H3'       45.8700   22.6730    8.6770 H      64  RA64        0.0000
   1604  H2'       44.6600   21.2940    6.9310 H      64  RA64        0.0000
   1605 H2''       45.4690   20.2160    5.6060 H      64  RA64        0.0000
   1606  P         44.7260   24.5200    7.0930 P.3    65  RA65        0.0000
   1607  OP1       44.8920   25.7890    6.3310 O.2    65  RA65        0.0000
   1608  OP2       44.4190   24.5370    8.5450 O.3    65  RA65        0.0000
   1609  O5'       43.5580   23.6950    6.4000 O.3    65  RA65        0.0000
   1610  C5'       43.5400   23.4510    4.9980 C.3    65  RA65        0.0000
   1611  C4'       42.5330   22.3780    4.6470 C.3    65  RA65        0.0000
   1612  O4'       42.8560   21.1550    5.3840 O.3    65  RA65        0.0000
   1613  C3'       41.0740   22.6970    4.9940 C.3    65  RA65        0.0000
   1614  O3'       40.2380   21.9910    4.0790 O.3    65  RA65        0.0000
   1615  C2'       40.9270   22.0270    6.3540 C.3    65  RA65        0.0000
   1616  O2'       39.5970   21.7690    6.7520 O.3    65  RA65        0.0000
   1617  C1'       41.7090   20.7450    6.0990 C.3    65  RA65        0.0000
   1618  N9        42.0790   19.9740    7.2850 N.ar   65  RA65        0.0000
   1619  C8        42.0700   20.3360    8.6200 C.ar   65  RA65        0.0000
   1620  N7        42.4400   19.3580    9.4240 N.ar   65  RA65        0.0000
   1621  C5        42.6910   18.2930    8.5630 C.ar   65  RA65        0.0000
   1622  C6        43.1060   16.9660    8.7760 C.3    65  RA65        0.0000
   1623  N6        43.3620   16.4400    9.9880 N.3    65  RA65        0.0000
   1624  N1        43.2590   16.1880    7.6820 N.2    65  RA65        0.0000
   1625  C2        43.0060   16.6810    6.4630 C.2    65  RA65        0.0000
   1626  N3        42.6080   17.9060    6.1390 N.pl3  65  RA65        0.0000
   1627  C4        42.4660   18.6640    7.2460 C.ar   65  RA65        0.0000
   1628  H5'       44.5350   23.1290    4.6660 H      65  RA65        0.0000
   1629 H5''       43.2660   24.3630    4.4640 H      65  RA65        0.0000
   1630  H4'       42.6440   22.0980    3.5980 H      65  RA65        0.0000
   1631  H1'       41.1420   20.0340    5.4810 H      65  RA65        0.0000
   1632  H8        41.7370   21.3070    8.9170 H      65  RA65        0.0000
   1633  H61       43.6550   15.4860   10.0700 H      65  RA65        0.0000
   1634  H62       43.2570   17.0150   10.8140 H      65  RA65        0.0000
   1635  H2        43.1180   16.0660    5.5940 H      65  RA65        0.0000
   1636  H3'       40.9550   23.7720    5.1000 H      65  RA65        0.0000
   1637  H2'       40.7660   22.7710    7.1210 H      65  RA65        0.0000
   1638 H2''       39.8630   21.2920    7.6100 H      65  RA65        0.0000
   1639  P         38.9540   22.6700    3.4030 P.3    66  RA66        0.0000
   1640  OP1       39.3910   23.0670    2.0410 O.2    66  RA66        0.0000
   1641  OP2       38.3580   23.6950    4.2890 O.3    66  RA66        0.0000
   1642  O5'       37.9080   21.4740    3.2520 O.3    66  RA66        0.0000
   1643  C5'       37.5630   20.6540    4.3610 C.3    66  RA66        0.0000
   1644  C4'       37.8550   19.2010    4.0720 C.3    66  RA66        0.0000
   1645  O4'       39.1930   18.8490    4.5230 O.3    66  RA66        0.0000
   1646  C3'       36.9740   18.1860    4.7690 C.3    66  RA66        0.0000
   1647  O3'       35.6730   18.0780    4.2290 O.3    66  RA66        0.0000
   1648  C2'       37.8190   16.9250    4.6530 C.3    66  RA66        0.0000
   1649  O2'       37.8210   16.4450    3.3130 O.3    66  RA66        0.0000
   1650  C1'       39.1900   17.5000    4.9810 C.3    66  RA66        0.0000
   1651  N9        39.3500   17.4930    6.4490 N.ar   66  RA66        0.0000
   1652  C8        39.2250   18.5180    7.3520 C.ar   66  RA66        0.0000
   1653  N7        39.3540   18.1400    8.6070 N.ar   66  RA66        0.0000
   1654  C5        39.5510   16.7660    8.5220 C.ar   66  RA66        0.0000
   1655  C6        39.7520   15.7610    9.4930 C.3    66  RA66        0.0000
   1656  N6        39.7950   15.9890   10.8110 N.3    66  RA66        0.0000
   1657  N1        39.9190   14.4910    9.0500 N.2    66  RA66        0.0000
   1658  C2        39.8750   14.2470    7.7370 C.2    66  RA66        0.0000
   1659  N3        39.6830   15.0950    6.7370 N.pl3  66  RA66        0.0000
   1660  C4        39.5300   16.3540    7.1990 C.ar   66  RA66        0.0000
   1661  H5'       36.4950   20.7670    4.5850 H      66  RA66        0.0000
   1662 H5''       38.1420   20.9480    5.2380 H      66  RA66        0.0000
   1663  H4'       37.8820   19.0400    2.9870 H      66  RA66        0.0000
   1664  H1'       40.0870   17.0020    4.6130 H      66  RA66        0.0000
   1665  H8        38.9910   19.5130    7.0180 H      66  RA66        0.0000
   1666  H61       39.9420   15.2290   11.4500 H      66  RA66        0.0000
   1667  H62       39.6790   16.9310   11.1630 H      66  RA66        0.0000
   1668  H2        40.0060   13.2430    7.3700 H      66  RA66        0.0000
   1669  H3'       36.8620   18.4530    5.8170 H      66  RA66        0.0000
   1670  H2'       37.2120   16.0500    4.8370 H      66  RA66        0.0000
   1671 H2''       38.5080   15.7230    3.4720 H      66  RA66        0.0000
   1672  P         34.4190   18.1350    5.2250 P.3    67  RU67        0.0000
   1673  OP1       33.1830   17.7850    4.4650 O.2    67  RU67        0.0000
   1674  OP2       34.4840   19.4300    5.9580 O.3    67  RU67        0.0000
   1675  O5'       34.7460   16.9670    6.2650 O.3    67  RU67        0.0000
   1676  C5'       34.1160   15.7020    6.1490 C.3    67  RU67        0.0000
   1677  C4'       35.0130   14.6850    5.4850 C.3    67  RU67        0.0000
   1678  O4'       36.2230   14.4920    6.2630 O.3    67  RU67        0.0000
   1679  C3'       34.4200   13.2910    5.3650 C.3    67  RU67        0.0000
   1680  O3'       33.6030   13.1790    4.2200 O.3    67  RU67        0.0000
   1681  C2'       35.6510   12.3990    5.3220 C.3    67  RU67        0.0000
   1682  O2'       36.2290   12.4030    4.0200 O.3    67  RU67        0.0000
   1683  C1'       36.5940   13.1340    6.2710 C.3    67  RU67        0.0000
   1684  N1        36.5130   12.6350    7.6650 N.ar   67  RU67        0.0000
   1685  C2        36.9720   11.3580    7.9680 C.ar   67  RU67        0.0000
   1686  O2        37.4330   10.5800    7.1520 O.2    67  RU67        0.0000
   1687  N3        36.8770   11.0000    9.2870 N.ar   67  RU67        0.0000
   1688  C4        36.3910   11.7540   10.3270 C.ar   67  RU67        0.0000
   1689  O4        36.3690   11.2650   11.4610 O.2    67  RU67        0.0000
   1690  C5        35.9430   13.0640    9.9410 C.ar   67  RU67        0.0000
   1691  C6        36.0170   13.4400    8.6610 C.ar   67  RU67        0.0000
   1692  H5'       33.1920   15.8020    5.5590 H      67  RU67        0.0000
   1693 H5''       33.8620   15.3160    7.1380 H      67  RU67        0.0000
   1694  H4'       35.3660   15.0790    4.5230 H      67  RU67        0.0000
   1695  H1'       37.6530   13.0500    6.0220 H      67  RU67        0.0000
   1696  H6        35.6220   14.4260    8.3940 H      67  RU67        0.0000
   1697  H5        35.5480   13.7390   10.6920 H      67  RU67        0.0000
   1698  H3        37.2310    9.9900    9.5450 H      67  RU67        0.0000
   1699  H3'       33.8350   13.0630    6.2590 H      67  RU67        0.0000
   1700  H2'       35.3620   11.3830    5.0540 H      67  RU67        0.0000
   1701 H2''       37.0290   11.8430    4.2650 H      67  RU67        0.0000
   1702  P         32.2860   12.2750    4.2520 P.3    68  RG68        0.0000
   1703  OP1       31.6000   12.5110    2.9570 O.2    68  RG68        0.0000
   1704  OP2       31.5850   12.4650    5.5390 O.3    68  RG68        0.0000
   1705  O5'       32.8490   10.7910    4.1930 O.3    68  RG68        0.0000
   1706  C5'       33.4240   10.2790    2.9990 C.3    68  RG68        0.0000
   1707  C4'       34.0410    8.9280    3.2400 C.3    68  RG68        0.0000
   1708  O4'       35.0250    9.0340    4.3000 O.3    68  RG68        0.0000
   1709  C3'       33.0790    7.8550    3.7290 C.3    68  RG68        0.0000
   1710  O3'       32.3720    7.2440    2.6640 O.3    68  RG68        0.0000
   1711  C2'       33.9910    6.8940    4.4740 C.3    68  RG68        0.0000
   1712  O2'       34.6520    6.0200    3.5690 O.3    68  RG68        0.0000
   1713  C1'       35.0170    7.8530    5.0830 C.3    68  RG68        0.0000
   1714  N9        34.6710    8.2050    6.4730 N.ar   68  RG68        0.0000
   1715  C8        34.1590    9.3830    6.9530 C.ar   68  RG68        0.0000
   1716  N7        33.9640    9.3740    8.2410 N.ar   68  RG68        0.0000
   1717  C5        34.3670    8.1090    8.6290 C.ar   68  RG68        0.0000
   1718  C6        34.3820    7.5060    9.9100 C.ar   68  RG68        0.0000
   1719  O6        34.0410    8.0130   10.9880 O.2    68  RG68        0.0000
   1720  N1        34.8670    6.1960    9.8510 N.ar   68  RG68        0.0000
   1721  C2        35.2750    5.5510    8.7080 C.ar   68  RG68        0.0000
   1722  N2        35.7020    4.2920    8.8380 N.pl3  68  RG68        0.0000
   1723  N3        35.2590    6.1060    7.5100 N.ar   68  RG68        0.0000
   1724  C4        34.8020    7.3770    7.5530 C.ar   68  RG68        0.0000
   1725  H5'       34.1970   10.9690    2.6370 H      68  RG68        0.0000
   1726 H5''       32.6570   10.1710    2.2300 H      68  RG68        0.0000
   1727  H4'       34.6170    8.6240    2.3610 H      68  RG68        0.0000
   1728  H1'       36.0350    7.4600    5.1560 H      68  RG68        0.0000
   1729  H8        33.9590   10.2040    6.2820 H      68  RG68        0.0000
   1730  H1        34.9210    5.6880   10.7120 H      68  RG68        0.0000
   1731  H21       35.7650    3.7670    9.7040 H      68  RG68        0.0000
   1732  H22       36.0090    3.8250    8.0030 H      68  RG68        0.0000
   1733  H3'       32.3630    8.2960    4.4270 H      68  RG68        0.0000
   1734  H2'       33.4450    5.9880    4.7300 H      68  RG68        0.0000
   1735 H2''       35.2240    5.5710    4.2690 H      68  RG68        0.0000
   1736  P         30.9050    6.6230    2.8740 P.3    69  RU69        0.0000
   1737  OP1       30.4710    6.2230    1.4980 O.2    69  RU69        0.0000
   1738  OP2       30.0600    7.5360    3.6880 O.3    69  RU69        0.0000
   1739  O5'       31.1340    5.3410    3.7890 O.3    69  RU69        0.0000
   1740  C5'       31.8850    4.2180    3.3470 C.3    69  RU69        0.0000
   1741  C4'       32.1100    3.2540    4.4940 C.3    69  RU69        0.0000
   1742  O4'       32.9100    3.8950    5.5230 O.3    69  RU69        0.0000
   1743  C3'       30.8570    2.8070    5.2270 C.3    69  RU69        0.0000
   1744  O3'       30.1930    1.7510    4.5580 O.3    69  RU69        0.0000
   1745  C2'       31.4000    2.4240    6.6000 C.3    69  RU69        0.0000
   1746  O2'       32.0600    1.1690    6.5330 O.3    69  RU69        0.0000
   1747  C1'       32.4680    3.4920    6.8030 C.3    69  RU69        0.0000
   1748  N1        31.9840    4.6850    7.5440 N.ar   69  RU69        0.0000
   1749  C2        32.0100    4.6350    8.9320 C.ar   69  RU69        0.0000
   1750  O2        32.3750    3.6370    9.5350 O.2    69  RU69        0.0000
   1751  N3        31.5800    5.7780    9.5750 N.ar   69  RU69        0.0000
   1752  C4        31.1440    6.9580    8.9980 C.ar   69  RU69        0.0000
   1753  O4        30.7870    7.9160    9.7150 O.2    69  RU69        0.0000
   1754  C5        31.1480    6.9360    7.5640 C.ar   69  RU69        0.0000
   1755  C6        31.5540    5.8330    6.9060 C.ar   69  RU69        0.0000
   1756  H5'       32.8550    4.5480    2.9640 H      69  RU69        0.0000
   1757 H5''       31.3460    3.6980    2.5510 H      69  RU69        0.0000
   1758  H4'       32.7240    2.4160    4.1510 H      69  RU69        0.0000
   1759  H1'       33.3260    3.1500    7.3850 H      69  RU69        0.0000
   1760  H6        31.4980    5.8410    5.8160 H      69  RU69        0.0000
   1761  H5        30.8230    7.8100    7.0090 H      69  RU69        0.0000
   1762  H3        31.5840    5.7490   10.6720 H      69  RU69        0.0000
   1763  H3'       30.1710    3.6480    5.3300 H      69  RU69        0.0000
   1764  H2'       30.6380    1.8850    7.1590 H      69  RU69        0.0000
   1765 H2''       32.4020    1.1730    7.4770 H      69  RU69        0.0000
   1766  P         28.5950    1.6080    4.6140 P.3    70  RC70        0.0000
   1767  OP1       28.2550    0.7820    3.4220 O.2    70  RC70        0.0000
   1768  OP2       27.9180    2.9040    4.8450 O.3    70  RC70        0.0000
   1769  O5'       28.3170    0.8010    5.9610 O.3    70  RC70        0.0000
   1770  C5'       28.8740   -0.4850    6.2010 C.3    70  RC70        0.0000
   1771  C4'       28.8690   -0.8230    7.6780 C.3    70  RC70        0.0000
   1772  O4'       29.7410    0.0840    8.4020 O.3    70  RC70        0.0000
   1773  C3'       27.5280   -0.7070    8.3980 C.3    70  RC70        0.0000
   1774  O3'       26.7300   -1.8630    8.2360 O.3    70  RC70        0.0000
   1775  C2'       27.9480   -0.4970    9.8430 C.3    70  RC70        0.0000
   1776  O2'       28.3550   -1.7400   10.4050 O.3    70  RC70        0.0000
   1777  C1'       29.1970    0.3600    9.6760 C.3    70  RC70        0.0000
   1778  N1        28.9290    1.8140    9.7790 N.ar   70  RC70        0.0000
   1779  C2        28.8930    2.3940   11.0490 C.ar   70  RC70        0.0000
   1780  O2        29.0400    1.6640   12.0410 O.2    70  RC70        0.0000
   1781  N3        28.6820    3.7310   11.1750 N.ar   70  RC70        0.0000
   1782  C4        28.5200    4.4770   10.0810 C.ar   70  RC70        0.0000
   1783  N4        28.3260    5.7840   10.2690 N.pl3  70  RC70        0.0000
   1784  C5        28.5630    3.9140    8.7690 C.ar   70  RC70        0.0000
   1785  C6        28.7660    2.5920    8.6580 C.ar   70  RC70        0.0000
   1786  H5'       29.9080   -0.5150    5.8330 H      70  RC70        0.0000
   1787 H5''       28.2920   -1.2480    5.6810 H      70  RC70        0.0000
   1788  H4'       29.3160   -1.8120    7.8270 H      70  RC70        0.0000
   1789  H1'       29.9550    0.1810   10.4440 H      70  RC70        0.0000
   1790  H6        28.8020    2.1320    7.6850 H      70  RC70        0.0000
   1791  H5        28.4360    4.5270    7.8640 H      70  RC70        0.0000
   1792  H41       28.3050    6.1250   11.2040 H      70  RC70        0.0000
   1793  H42       28.2070    6.3880    9.4650 H      70  RC70        0.0000
   1794  H3'       26.9970    0.1750    8.0380 H      70  RC70        0.0000
   1795  H2'       27.0810   -0.5910   10.4970 H      70  RC70        0.0000
   1796 H2''       28.6660   -1.3650   11.2830 H      70  RC70        0.0000
   1797  P         25.1390   -1.7720    8.0530 P.3    71  RC71        0.0000
   1798  OP1       24.7030   -3.1160    7.5830 O.3    71  RC71        0.0000
   1799  OP2       24.8150   -0.5500    7.2680 O.2    71  RC71        0.0000
   1800  O5'       24.5730   -1.5500    9.5260 O.3    71  RC71        0.0000
   1801  C5'       24.5230   -2.6190   10.4530 C.3    71  RC71        0.0000
   1802  C4'       24.5290   -2.1280   11.8810 C.3    71  RC71        0.0000
   1803  O4'       25.6180   -1.1880   12.0830 O.3    71  RC71        0.0000
   1804  C3'       23.3090   -1.3500   12.3540 C.3    71  RC71        0.0000
   1805  O3'       22.1750   -2.1520   12.6390 O.3    71  RC71        0.0000
   1806  C2'       23.8630   -0.6180   13.5670 C.3    71  RC71        0.0000
   1807  O2'       24.0730   -1.5360   14.6370 O.3    71  RC71        0.0000
   1808  C1'       25.2300   -0.2140   13.0440 C.3    71  RC71        0.0000
   1809  N1        25.2140    1.1250   12.4090 N.ar   71  RC71        0.0000
   1810  C2        25.2360    2.2790   13.2310 C.ar   71  RC71        0.0000
   1811  O2        25.2230    2.1700   14.4730 O.2    71  RC71        0.0000
   1812  N3        25.2490    3.5010   12.6520 N.ar   71  RC71        0.0000
   1813  C4        25.2460    3.6190   11.3250 C.ar   71  RC71        0.0000
   1814  N4        25.2540    4.8490   10.8100 N.pl3  71  RC71        0.0000
   1815  C5        25.2220    2.4730   10.4710 C.ar   71  RC71        0.0000
   1816  C6        25.2020    1.2650   11.0500 C.ar   71  RC71        0.0000
   1817  H5'       25.3890   -3.2830   10.3010 H      71  RC71        0.0000
   1818 H5''       23.6080   -3.1990   10.3130 H      71  RC71        0.0000
   1819  H4'       24.7590   -2.9620   12.5550 H      71  RC71        0.0000
   1820  H1'       26.0080   -0.1320   13.8100 H      71  RC71        0.0000
   1821  H6        25.1760    0.3760   10.4280 H      71  RC71        0.0000
   1822  H5        25.2200    2.5590    9.3750 H      71  RC71        0.0000
   1823  H41       25.2710    5.6200   11.4480 H      71  RC71        0.0000
   1824  H42       25.2430    4.9710    9.8080 H      71  RC71        0.0000
   1825  H3'       23.0180   -0.6290   11.5930 H      71  RC71        0.0000
   1826  H2'       23.0480   -0.2320   14.1710 H      71  RC71        0.0000
   1827 H2''       24.5240   -0.8850   15.2520 H      71  RC71        0.0000
   1828  P         20.6960   -1.5430   12.4590 P.3    72  RG72        0.0000
   1829  OP1       19.7360   -2.5850   12.8980 O.3    72  RG72        0.0000
   1830  OP2       20.5560   -0.8570   11.1420 O.2    72  RG72        0.0000
   1831  O5'       20.6310   -0.3710   13.5340 O.3    72  RG72        0.0000
   1832  C5'       20.6890   -0.6750   14.9170 C.3    72  RG72        0.0000
   1833  C4'       20.7390    0.5780   15.7450 C.3    72  RG72        0.0000
   1834  O4'       21.9270    1.3470   15.4270 O.3    72  RG72        0.0000
   1835  C3'       19.5930    1.5530   15.5240 C.3    72  RG72        0.0000
   1836  O3'       18.4540    1.1620   16.2600 O.3    72  RG72        0.0000
   1837  C2'       20.1930    2.8700   15.9920 C.3    72  RG72        0.0000
   1838  O2'       20.1920    2.9320   17.4050 O.3    72  RG72        0.0000
   1839  C1'       21.6440    2.7280   15.5240 C.3    72  RG72        0.0000
   1840  N9        21.8450    3.3620   14.2050 N.ar   72  RG72        0.0000
   1841  C8        21.9220    2.7680   12.9580 C.ar   72  RG72        0.0000
   1842  N7        22.0830    3.6390   11.9980 N.ar   72  RG72        0.0000
   1843  C5        22.1210    4.8770   12.6460 C.ar   72  RG72        0.0000
   1844  C6        22.2670    6.2000   12.1400 C.ar   72  RG72        0.0000
   1845  O6        22.4070    6.5650   10.9650 O.2    72  RG72        0.0000
   1846  N1        22.2380    7.1490   13.1640 N.ar   72  RG72        0.0000
   1847  C2        22.0840    6.8560   14.5020 C.ar   72  RG72        0.0000
   1848  N2        22.0850    7.8790   15.3670 N.pl3  72  RG72        0.0000
   1849  N3        21.9420    5.6390   14.9780 N.ar   72  RG72        0.0000
   1850  C4        21.9730    4.7110   14.0050 C.ar   72  RG72        0.0000
   1851  H5'       21.5830   -1.2800   15.1250 H      72  RG72        0.0000
   1852 H5''       19.8040   -1.2400   15.2160 H      72  RG72        0.0000
   1853  H4'       20.8590    0.3170   16.8050 H      72  RG72        0.0000
   1854  H1'       22.3930    3.2100   16.1630 H      72  RG72        0.0000
   1855  H8        21.8520    1.7040   12.8580 H      72  RG72        0.0000
   1856  H1        22.3360    8.1080   12.9090 H      72  RG72        0.0000
   1857  H21       22.2010    8.8580   15.1240 H      72  RG72        0.0000
   1858  H22       21.9820    7.6580   16.3380 H      72  RG72        0.0000
   1859  H3'       19.3640    1.6140   14.4600 H      72  RG72        0.0000
   1860  H2'       19.4140    3.6250   16.0690 H      72  RG72        0.0000
   1861 H2''       20.6930    3.8020   17.4760 H      72  RG72        0.0000
   1862  P         16.9620    1.4830   15.7550 P.3    73  RA73        0.0000
   1863  OP1       16.0550    0.6990   16.6350 O.3    73  RA73        0.0000
   1864  OP2       16.8310    1.3480   14.2830 O.2    73  RA73        0.0000
   1865  O5'       16.7760    3.0170   16.1160 O.3    73  RA73        0.0000
   1866  C5'       15.4920    3.5250   16.4210 C.3    73  RA73        0.0000
   1867  C4'       15.5730    4.9790   16.7750 C.3    73  RA73        0.0000
   1868  O4'       16.4590    5.6350   15.8410 O.3    73  RA73        0.0000
   1869  C3'       14.2730    5.7540   16.6760 C.3    73  RA73        0.0000
   1870  O3'       13.5150    5.6520   17.8640 O.3    73  RA73        0.0000
   1871  C2'       14.7510    7.1730   16.4140 C.3    73  RA73        0.0000
   1872  O2'       15.1570    7.7710   17.6380 O.3    73  RA73        0.0000
   1873  C1'       15.9970    6.9290   15.5640 C.3    73  RA73        0.0000
   1874  N9        15.7810    7.0440   14.1050 N.ar   73  RA73        0.0000
   1875  C8        15.6630    6.0360   13.1750 C.ar   73  RA73        0.0000
   1876  N7        15.5310    6.4720   11.9450 N.ar   73  RA73        0.0000
   1877  C5        15.5750    7.8600   12.0770 C.ar   73  RA73        0.0000
   1878  C6        15.4910    8.9200   11.1540 C.3    73  RA73        0.0000
   1879  N6        15.3290    8.7570    9.8390 N.3    73  RA73        0.0000
   1880  N1        15.5730   10.1890   11.6200 N.2    73  RA73        0.0000
   1881  C2        15.7330   10.3720   12.9350 C.2    73  RA73        0.0000
   1882  N3        15.8220    9.4590   13.8980 N.pl3  73  RA73        0.0000
   1883  C4        15.7380    8.2170   13.3980 C.ar   73  RA73        0.0000
   1884  H5'       15.0650    2.9700   17.2660 H      73  RA73        0.0000
   1885 H5''       14.8290    3.4180   15.5590 H      73  RA73        0.0000
   1886  H4'       16.0610    5.0970   17.7460 H      73  RA73        0.0000
   1887  H1'       16.7910    7.6490   15.7660 H      73  RA73        0.0000
   1888  H8        15.6350    5.0090   13.4890 H      73  RA73        0.0000
   1889  H61       15.2760    9.5570    9.2310 H      73  RA73        0.0000
   1890  H62       15.2590    7.8240    9.4510 H      73  RA73        0.0000
   1891  H2        15.8070   11.3650   13.3390 H      73  RA73        0.0000
   1892  H3'       13.6970    5.3990   15.8190 H      73  RA73        0.0000
   1893  H2'       13.9100    7.8640   16.4820 H      73  RA73        0.0000
   1894 H2''       15.5030    8.6220   17.2270 H      73  RA73        0.0000
   1895  P         11.9300    5.4300   17.7830 P.3    74  RC74        0.0000
   1896  OP1       11.5470    4.8040   19.0730 O.3    74  RC74        0.0000
   1897  OP2       11.6110    4.7510   16.4950 O.2    74  RC74        0.0000
   1898  O5'       11.3340    6.9050   17.6610 O.3    74  RC74        0.0000
   1899  C5'       11.6850    7.9150   18.5900 C.3    74  RC74        0.0000
   1900  C4'       11.6470    9.2900   17.9720 C.3    74  RC74        0.0000
   1901  O4'       12.7030    9.4290   16.9890 O.3    74  RC74        0.0000
   1902  C3'       10.3990    9.6810   17.1980 C.3    74  RC74        0.0000
   1903  O3'        9.2970   10.0210   18.0140 O.3    74  RC74        0.0000
   1904  C2'       10.9070   10.8440   16.3590 C.3    74  RC74        0.0000
   1905  O2'       11.0620   12.0030   17.1580 O.3    74  RC74        0.0000
   1906  C1'       12.2980   10.3430   15.9850 C.3    74  RC74        0.0000
   1907  N1        12.2980    9.6630   14.6670 N.ar   74  RC74        0.0000
   1908  C2        12.3540   10.4710   13.5350 C.ar   74  RC74        0.0000
   1909  O2        12.3970   11.7060   13.6840 O.2    74  RC74        0.0000
   1910  N3        12.3570    9.8880   12.3120 N.ar   74  RC74        0.0000
   1911  C4        12.3020    8.5590   12.1970 C.ar   74  RC74        0.0000
   1912  N4        12.3040    8.0450   10.9650 N.pl3  74  RC74        0.0000
   1913  C5        12.2420    7.7080   13.3380 C.ar   74  RC74        0.0000
   1914  C6        12.2320    8.3020   14.5390 C.ar   74  RC74        0.0000
   1915  H5'       12.7000    7.7250   18.9770 H      74  RC74        0.0000
   1916 H5''       10.9850    7.9180   19.4270 H      74  RC74        0.0000
   1917  H4'       11.8820   10.0430   18.7350 H      74  RC74        0.0000
   1918  H1'       13.0590   11.1240   15.8750 H      74  RC74        0.0000
   1919  H6        12.1700    7.6920   15.4350 H      74  RC74        0.0000
   1920  H5        12.2050    6.6170   13.2600 H      74  RC74        0.0000
   1921  H41       12.3470    8.6830   10.1940 H      74  RC74        0.0000
   1922  H42       12.2630    7.0440   10.8420 H      74  RC74        0.0000
   1923  H3'       10.1010    8.8630   16.5450 H      74  RC74        0.0000
   1924  H2'       10.0690   11.3840   15.9270 H      74  RC74        0.0000
   1925 H2''       11.4810   12.5730   16.4440 H      74  RC74        0.0000
   1926  P          7.8030    9.7210   17.5040 P.3    75  RU75        0.0000
   1927  OP1        6.8670   10.2870   18.5130 O.3    75  RU75        0.0000
   1928  OP2        7.7150    8.2830   17.1660 O.2    75  RU75        0.0000
   1929  O5'        7.6610   10.5830   16.1690 O.3    75  RU75        0.0000
   1930  C5'        7.6310   12.0030   16.2160 C.3    75  RU75        0.0000
   1931  C4'        7.4900   12.6090   14.8390 C.3    75  RU75        0.0000
   1932  O4'        8.6450   12.2760   14.0190 O.3    75  RU75        0.0000
   1933  C3'        6.3040   12.1300   14.0140 C.3    75  RU75        0.0000
   1934  O3'        5.0890   12.7690   14.3720 O.3    75  RU75        0.0000
   1935  C2'        6.7530   12.4260   12.5890 C.3    75  RU75        0.0000
   1936  O2'        6.6260   13.8070   12.2940 O.3    75  RU75        0.0000
   1937  C1'        8.2410   12.0910   12.6740 C.3    75  RU75        0.0000
   1938  N1         8.4980   10.6840   12.2790 N.ar   75  RU75        0.0000
   1939  C2         8.5410   10.4250   10.9190 C.ar   75  RU75        0.0000
   1940  O2         8.3820   11.2810   10.0580 O.2    75  RU75        0.0000
   1941  N3         8.7850    9.1220   10.5960 N.ar   75  RU75        0.0000
   1942  C4         8.9680    8.0730   11.4590 C.ar   75  RU75        0.0000
   1943  O4         9.1700    6.9700   10.9730 O.2    75  RU75        0.0000
   1944  C5         8.9100    8.4030   12.8480 C.ar   75  RU75        0.0000
   1945  C6         8.6800    9.6770   13.2020 C.ar   75  RU75        0.0000
   1946  H5'        8.5580   12.3760   16.6770 H      75  RU75        0.0000
   1947 H5''        6.7810   12.3410   16.8100 H      75  RU75        0.0000
   1948  H4'        7.5150   13.7030   14.9140 H      75  RU75        0.0000
   1949  H1'        8.8970   12.6730   12.0230 H      75  RU75        0.0000
   1950  H6         8.5940    9.9080   14.2620 H      75  RU75        0.0000
   1951  H5         9.0490    7.6400   13.5970 H      75  RU75        0.0000
   1952  H3         8.8420    8.8840    9.5240 H      75  RU75        0.0000
   1953  H3'        6.1800   11.0540   14.1410 H      75  RU75        0.0000
   1954  H2'        5.9130   12.3250   11.9080 H      75  RU75        0.0000
   1955 H2''        7.0500   13.7600   11.3830 H      75  RU75        0.0000
   1956  P          3.6990   11.9590   14.3630 P.3    76  RA76        0.0000
   1957  OP1        2.7430   12.8120   15.1180 O.3    76  RA76        0.0000
   1958  OP2        3.8990   10.5520   14.7640 O.2    76  RA76        0.0000
   1959  O5'        3.2720   11.9520   12.8290 O.3    76  RA76        0.0000
   1960  C5'        3.0970   13.1690   12.1240 C.3    76  RA76        0.0000
   1961  C4'        2.8830   12.9230   10.6510 C.3    76  RA76        0.0000
   1962  O4'        4.1300   12.5140   10.0260 O.3    76  RA76        0.0000
   1963  C3'        1.9170   11.8060   10.2920 C.3    76  RA76        0.0000
   1964  O3'        0.5540   12.1860   10.4150 O.3    76  RA76        0.0000
   1965  C2'        2.3480   11.4530    8.8730 C.3    76  RA76        0.0000
   1966  O2'        1.9040   12.4410    7.9570 O.3    76  RA76        0.0000
   1967  C1'        3.8660   11.5900    8.9890 C.3    76  RA76        0.0000
   1968  N9         4.5240   10.3070    9.3090 N.ar   76  RA76        0.0000
   1969  C8         4.8630    9.8120   10.5410 C.ar   76  RA76        0.0000
   1970  N7         5.4390    8.6330   10.4920 N.ar   76  RA76        0.0000
   1971  C5         5.4890    8.3280    9.1360 C.ar   76  RA76        0.0000
   1972  C6         5.9910    7.2180    8.4170 C.3    76  RA76        0.0000
   1973  N6         6.5650    6.1490    8.9850 N.3    76  RA76        0.0000
   1974  N1         5.8790    7.2400    7.0680 N.2    76  RA76        0.0000
   1975  C2         5.3060    8.3060    6.4920 C.2    76  RA76        0.0000
   1976  N3         4.8090    9.4040    7.0620 N.pl3  76  RA76        0.0000
   1977  C4         4.9280    9.3560    8.3980 C.ar   76  RA76        0.0000
   1978  H5'        3.9840   13.8040   12.2550 H      76  RA76        0.0000
   1979 H5''        2.2230   13.7020   12.5040 H      76  RA76        0.0000
   1980  H4'        2.6250   13.8650   10.1540 H      76  RA76        0.0000
   1981  H1'        4.3670   11.9230    8.0780 H      76  RA76        0.0000
   1982  H8         4.6110   10.3530   11.4350 H      76  RA76        0.0000
   1983  H61        6.9000    5.3950    8.4160 H      76  RA76        0.0000
   1984  H62        6.6590    6.1060    9.9920 H      76  RA76        0.0000
   1985  H2         5.1990    8.3490    5.4220 H      76  RA76        0.0000
   1986  H3'        2.0850   10.9510   10.9460 H      76  RA76        0.0000
   1987  H2'        1.6010   10.8200    8.4060 H      76  RA76        0.0000
   1988 H2''        2.3700   12.0640    7.1510 H      76  RA76        0.0000
   1989  P         -0.5250   11.1850   11.0700 P.3    77  RU77        0.0000
   1990  OP1       -1.6950   12.0230   11.4260 O.2    77  RU77        0.0000
   1991  OP2        0.0980   10.3280   12.1060 O.3    77  RU77        0.0000
   1992  O5'       -0.9390   10.2340    9.8650 O.3    77  RU77        0.0000
   1993  C5'       -1.3660   10.7830    8.6280 C.3    77  RU77        0.0000
   1994  C4'       -1.3480    9.7490    7.5320 C.3    77  RU77        0.0000
   1995  O4'        0.0200    9.4490    7.1580 O.3    77  RU77        0.0000
   1996  C3'       -1.9350    8.3940    7.8890 C.3    77  RU77        0.0000
   1997  O3'       -3.3490    8.3660    7.8280 O.3    77  RU77        0.0000
   1998  C2'       -1.2620    7.4690    6.8840 C.3    77  RU77        0.0000
   1999  O2'       -1.8830    7.5700    5.6130 O.3    77  RU77        0.0000
   2000  C1'        0.1300    8.0890    6.7890 C.3    77  RU77        0.0000
   2001  N1         1.0910    7.4240    7.6960 N.ar   77  RU77        0.0000
   2002  C2         1.7440    6.3110    7.2070 C.ar   77  RU77        0.0000
   2003  O2         1.5400    5.8900    6.0860 O.2    77  RU77        0.0000
   2004  N3         2.6370    5.7230    8.0690 N.ar   77  RU77        0.0000
   2005  C4         2.9210    6.1370    9.3570 C.ar   77  RU77        0.0000
   2006  O4         3.7340    5.5170   10.0340 O.2    77  RU77        0.0000
   2007  C5         2.2050    7.2970    9.7930 C.ar   77  RU77        0.0000
   2008  C6         1.3360    7.8870    8.9640 C.ar   77  RU77        0.0000
   2009  H5'       -0.7060   11.6160    8.3460 H      77  RU77        0.0000
   2010 H5''       -2.3880   11.1570    8.7160 H      77  RU77        0.0000
   2011  H4'       -1.7950   10.1680    6.6230 H      77  RU77        0.0000
   2012  H1'        0.6020    8.0250    5.8070 H      77  RU77        0.0000
   2013  H6         0.7740    8.7440    9.3350 H      77  RU77        0.0000
   2014  H5         2.3690    7.6910   10.7890 H      77  RU77        0.0000
   2015  H3         3.1740    4.8480    7.7070 H      77  RU77        0.0000
   2016  H3'       -1.6310    8.1170    8.8990 H      77  RU77        0.0000
   2017  H2'       -1.7410    6.4920    6.9040 H      77  RU77        0.0000
   2018 H2''       -1.2370    6.9660    5.1330 H      77  RU77        0.0000
   2019  P         -4.1680    7.2860    8.6900 P.3    78  RG78        0.0000
   2020  OP1       -5.6090    7.6310    8.5600 O.2    78  RG78        0.0000
   2021  OP2       -3.5460    7.1930   10.0340 O.3    78  RG78        0.0000
   2022  O5'       -3.8920    5.8980    7.9560 O.3    78  RG78        0.0000
   2023  C5'       -4.3290    5.6750    6.6270 C.3    78  RG78        0.0000
   2024  C4'       -3.6620    4.4650    6.0220 C.3    78  RG78        0.0000
   2025  O4'       -2.2200    4.6290    6.0150 O.3    78  RG78        0.0000
   2026  C3'       -3.8730    3.1540    6.7550 C.3    78  RG78        0.0000
   2027  O3'       -5.1330    2.5730    6.4740 O.3    78  RG78        0.0000
   2028  C2'       -2.6950    2.3210    6.2740 C.3    78  RG78        0.0000
   2029  O2'       -2.9340    1.8530    4.9580 O.3    78  RG78        0.0000
   2030  C1'       -1.5940    3.3760    6.2040 C.3    78  RG78        0.0000
   2031  N9        -0.7880    3.4290    7.4420 N.ar   78  RG78        0.0000
   2032  C8        -0.8390    4.3980    8.4150 C.ar   78  RG78        0.0000
   2033  N7         0.0020    4.1880    9.3940 N.ar   78  RG78        0.0000
   2034  C5         0.6470    3.0050    9.0510 C.ar   78  RG78        0.0000
   2035  C6         1.6630    2.2780    9.7280 C.ar   78  RG78        0.0000
   2036  O6         2.2120    2.5400   10.8090 O.2    78  RG78        0.0000
   2037  N1         2.0400    1.1350    9.0270 N.ar   78  RG78        0.0000
   2038  C2         1.5020    0.7430    7.8290 C.ar   78  RG78        0.0000
   2039  N2         1.9920   -0.3920    7.3020 N.pl3  78  RG78        0.0000
   2040  N3         0.5560    1.4160    7.1890 N.ar   78  RG78        0.0000
   2041  C4         0.1760    2.5280    7.8470 C.ar   78  RG78        0.0000
   2042  H5'       -4.1000    6.5560    6.0090 H      78  RG78        0.0000
   2043 H5''       -5.4070    5.5030    6.6080 H      78  RG78        0.0000
   2044  H4'       -3.9340    4.3870    4.9610 H      78  RG78        0.0000
   2045  H1'       -0.8530    3.2160    5.4160 H      78  RG78        0.0000
   2046  H8        -1.5210    5.2250    8.3260 H      78  RG78        0.0000
   2047  H1         2.7530    0.5620    9.4270 H      78  RG78        0.0000
   2048  H21        2.7190   -0.9740    7.6910 H      78  RG78        0.0000
   2049  H22        1.6060   -0.6800    6.4160 H      78  RG78        0.0000
   2050  H3'       -3.7900    3.3160    7.8300 H      78  RG78        0.0000
   2051  H2'       -2.8370    1.2800    6.5570 H      78  RG78        0.0000
   2052 H2''       -2.0290    1.4360    4.8250 H      78  RG78        0.0000
   2053  P         -5.8800    1.6820    7.5820 P.3    79  RU79        0.0000
   2054  OP1       -7.2920    1.5490    7.1380 O.2    79  RU79        0.0000
   2055  OP2       -5.5650    2.2150    8.9330 O.3    79  RU79        0.0000
   2056  O5'       -5.1730    0.2610    7.4650 O.3    79  RU79        0.0000
   2057  C5'       -5.1530   -0.4430    6.2340 C.3    79  RU79        0.0000
   2058  C4'       -4.2760   -1.6660    6.3250 C.3    79  RU79        0.0000
   2059  O4'       -2.8920   -1.2600    6.4650 O.3    79  RU79        0.0000
   2060  C3'       -4.5200   -2.5660    7.5270 C.3    79  RU79        0.0000
   2061  O3'       -5.6140   -3.4490    7.3470 O.3    79  RU79        0.0000
   2062  C2'       -3.1840   -3.2770    7.6930 C.3    79  RU79        0.0000
   2063  O2'       -3.0670   -4.3480    6.7700 O.3    79  RU79        0.0000
   2064  C1'       -2.2010   -2.1790    7.2860 C.3    79  RU79        0.0000
   2065  N1        -1.6590   -1.4540    8.4550 N.ar   79  RU79        0.0000
   2066  C2        -0.5970   -2.0360    9.1150 C.ar   79  RU79        0.0000
   2067  O2        -0.1100   -3.1010    8.7740 O.2    79  RU79        0.0000
   2068  N3        -0.1250   -1.3280   10.1880 N.ar   79  RU79        0.0000
   2069  C4        -0.6020   -0.1190   10.6500 C.ar   79  RU79        0.0000
   2070  O4        -0.0690    0.4000   11.6300 O.2    79  RU79        0.0000
   2071  C5        -1.7050    0.4180    9.9110 C.ar   79  RU79        0.0000
   2072  C6        -2.1900   -0.2520    8.8620 C.ar   79  RU79        0.0000
   2073  H5'       -4.7730    0.2120    5.4390 H      79  RU79        0.0000
   2074 H5''       -6.1620   -0.7690    5.9710 H      79  RU79        0.0000
   2075  H4'       -4.3080   -2.2120    5.3770 H      79  RU79        0.0000
   2076  H1'       -1.3140   -2.5320    6.7560 H      79  RU79        0.0000
   2077  H6        -3.0560    0.1490    8.3460 H      79  RU79        0.0000
   2078  H5        -2.1410    1.3660   10.2070 H      79  RU79        0.0000
   2079  H3         0.7150   -1.7620   10.7370 H      79  RU79        0.0000
   2080  H3'       -4.7200   -1.9540    8.4090 H      79  RU79        0.0000
   2081  H2'       -3.2810   -4.0800    8.4210 H      79  RU79        0.0000
   2082 H2''       -2.1180   -4.5870    7.0090 H      79  RU79        0.0000
   2083  P         -6.4870   -3.9190    8.6140 P.3    80  RC80        0.0000
   2084  OP1       -7.6480   -4.6870    8.0930 O.2    80  RC80        0.0000
   2085  OP2       -6.7260   -2.7400    9.4850 O.3    80  RC80        0.0000
   2086  O5'       -5.5230   -4.9130    9.4030 O.3    80  RC80        0.0000
   2087  C5'       -5.1460   -6.1620    8.8410 C.3    80  RC80        0.0000
   2088  C4'       -4.1410   -6.8820    9.7060 C.3    80  RC80        0.0000
   2089  O4'       -2.8930   -6.1420    9.7340 O.3    80  RC80        0.0000
   2090  C3'       -4.5060   -7.0320   11.1740 C.3    80  RC80        0.0000
   2091  O3'       -5.4220   -8.0860   11.4210 O.3    80  RC80        0.0000
   2092  C2'       -3.1460   -7.2220   11.8350 C.3    80  RC80        0.0000
   2093  O2'       -2.6780   -8.5510   11.6620 O.3    80  RC80        0.0000
   2094  C1'       -2.2720   -6.2910   10.9960 C.3    80  RC80        0.0000
   2095  N1        -2.1260   -4.9580   11.6250 N.ar   80  RC80        0.0000
   2096  C2        -1.0640   -4.7790   12.5090 C.ar   80  RC80        0.0000
   2097  O2        -0.3010   -5.7350   12.7030 O.2    80  RC80        0.0000
   2098  N3        -0.8940   -3.5770   13.1110 N.ar   80  RC80        0.0000
   2099  C4        -1.7470   -2.5800   12.8610 C.ar   80  RC80        0.0000
   2100  N4        -1.5470   -1.4110   13.4750 N.pl3  80  RC80        0.0000
   2101  C5        -2.8450   -2.7370   11.9670 C.ar   80  RC80        0.0000
   2102  C6        -2.9960   -3.9310   11.3780 C.ar   80  RC80        0.0000
   2103  H5'       -4.7100   -6.0010    7.8440 H      80  RC80        0.0000
   2104 H5''       -6.0190   -6.8090    8.7440 H      80  RC80        0.0000
   2105  H4'       -3.8800   -7.8420    9.2460 H      80  RC80        0.0000
   2106  H1'       -1.2400   -6.6280   10.8570 H      80  RC80        0.0000
   2107  H6        -3.8200   -4.0900   10.6930 H      80  RC80        0.0000
   2108  H5        -3.5520   -1.9240   11.7540 H      80  RC80        0.0000
   2109  H41       -0.7610   -1.3430   14.0980 H      80  RC80        0.0000
   2110  H42       -2.1740   -0.6420   13.3040 H      80  RC80        0.0000
   2111  H3'       -4.9610   -6.1090   11.5350 H      80  RC80        0.0000
   2112  H2'       -3.2790   -7.5360   12.8680 H      80  RC80        0.0000
   2113 H2''       -1.7780   -8.3990   12.0860 H      80  RC80        0.0000
   2114  P         -6.5510   -7.9190   12.5540 P.3    81  RC81        0.0000
   2115  OP1       -7.5670   -8.9830   12.3410 O.2    81  RC81        0.0000
   2116  OP2       -6.9910   -6.5000   12.5820 O.3    81  RC81        0.0000
   2117  O5'       -5.7640   -8.2130   13.9080 O.3    81  RC81        0.0000
   2118  C5'       -4.9740   -9.3840   14.0420 C.3    81  RC81        0.0000
   2119  C4'       -4.1020   -9.3250   15.2700 C.3    81  RC81        0.0000
   2120  O4'       -3.0430   -8.3480   15.0820 O.3    81  RC81        0.0000
   2121  C3'       -4.7820   -8.8830   16.5540 C.3    81  RC81        0.0000
   2122  O3'       -5.5420   -9.9130   17.1670 O.3    81  RC81        0.0000
   2123  C2'       -3.6060   -8.3940   17.3970 C.3    81  RC81        0.0000
   2124  O2'       -2.9130   -9.4950   17.9710 O.3    81  RC81        0.0000
   2125  C1'       -2.7060   -7.7620   16.3250 C.3    81  RC81        0.0000
   2126  N1        -2.8710   -6.2850   16.2400 N.ar   81  RC81        0.0000
   2127  C2        -1.9240   -5.4700   16.8780 C.ar   81  RC81        0.0000
   2128  O2        -0.9780   -6.0090   17.4760 O.2    81  RC81        0.0000
   2129  N3        -2.0560   -4.1200   16.8220 N.ar   81  RC81        0.0000
   2130  C4        -3.0870   -3.5710   16.1690 C.ar   81  RC81        0.0000
   2131  N4        -3.1780   -2.2370   16.1400 N.pl3  81  RC81        0.0000
   2132  C5        -4.0700   -4.3700   15.5140 C.ar   81  RC81        0.0000
   2133  C6        -3.9240   -5.7040   15.5750 C.ar   81  RC81        0.0000
   2134  H5'       -4.3350   -9.5020   13.1540 H      81  RC81        0.0000
   2135 H5''       -5.6160  -10.2620   14.1340 H      81  RC81        0.0000
   2136  H4'       -3.5750  -10.2780   15.3940 H      81  RC81        0.0000
   2137  H1'       -1.6340   -7.8910   16.5120 H      81  RC81        0.0000
   2138  H6        -4.6530   -6.3430   15.0880 H      81  RC81        0.0000
   2139  H5        -4.9210   -3.9340   14.9750 H      81  RC81        0.0000
   2140  H41       -2.4640   -1.7150   16.6140 H      81  RC81        0.0000
   2141  H42       -3.9440   -1.7990   15.6540 H      81  RC81        0.0000
   2142  H3'       -5.4520   -8.0480   16.3480 H      81  RC81        0.0000
   2143  H2'       -3.9310   -8.2190   18.4180 H      81  RC81        0.0000
   2144 H2''       -2.1710   -8.9470   18.3760 H      81  RC81        0.0000
   2145  H3T       -5.9870   -9.6300   18.0040 H      81  RC81        0.0000
@<TRIPOS>BOND
     1  1091  1080    1
     2  1079  1078    2
     3  1080  1078   ar
     4  1080  1081   ar
     5  1002  1001    2
     6  1036  1035    2
     7  1082  1081    2
     8   409   389    1
     9  1025  1005    1
    10  1078  1077   ar
    11  1081  1083   ar
    12  1024  1005    1
    13   408   388    1
    14   419   418    2
    15   394   417    1
    16   394   393    1
    17   407   388    1
    18   992   973    1
    19  1005  1004    1
    20  1005  1006    1
    21   976  1001    1
    22   976   975    1
    23   392   418    1
    24   392   391    1
    25   978  1000    1
    26   978   977    1
    27   389   388    1
    28   389   390    1
    29   389   391    1
    30  1088  1076    1
    31   383   363    1
    32  1026  1006    1
    33   388   387    1
    34   363   362    1
    35  1035  1037    1
    36  1035  1009    1
    37  1035  1038    1
    38  1001  1004    1
    39  1001  1003    1
    40  1077  1076    1
    41  1077  1084   ar
    42   991   972    1
    43  1083  1084   ar
    44  1083  1090    1
    45  1071  1076    1
    46  1071  1070    1
    47  1009  1008    1
    48   390   395    1
    49   990   972    1
    50  1006  1008    1
    51  1006  1007    1
    52  1076  1074    1
    53  1056  1039    1
    54   418   421    1
    55   418   420    1
    56   391   393    1
    57   391   415    1
    58   973   972    1
    59   973   975    1
    60   973   974    1
    61   385   384    2
    62  1084  1089    1
    63   410   395    1
    64   393   416    1
    65   393   395    1
    66   972   971    1
    67  1067  1065    2
    68   975   977    1
    69   975   998    1
    70  1087  1070    1
    71   375   358    1
    72   999   977    1
    73   977   979    1
    74   421   422    1
    75   395   396    1
    76   382   362    1
    77  1038  1039    1
    78   361   384    1
    79   361   360    1
    80   195   194    2
    81   387   384    1
    82  1008  1032    1
    83  1008  1010    1
    84  1068  1065    1
    85  1068  1069    1
    86   967   945    1
    87  1062  1042    1
    88   362   360    1
    89   362   364    1
    90   228   227    2
    91  1039  1055    1
    92  1039  1040    1
    93   945   944    1
    94  1070  1069    1
    95  1070  1072    1
    96   974   979    1
    97   376   364    1
    98   993   979    1
    99  1007  1012    1
   100   384   386    1
   101   440   423    1
   102   969   968    2
   103   979   980    1
   104  1094  1075    1
   105  1011  1010    1
   106  1011  1034    1
   107  1065  1066    1
   108  1065  1043    1
   109   360   358    1
   110   360   381    1
   111  1073  1072    1
   112  1073  1095    1
   113  1097  1095    2
   114   358   359    1
   115   358   357    1
   116  1074  1075    1
   117  1074  1072    1
   118  1074  1093    1
   119   364   359    1
   120   364   365    1
   121   971   968    1
   122  1069  1086    1
   123  1069  1085    1
   124   367   366    2
   125   283   270    1
   126   217   198    1
   127   229   227    1
   128   422   438    1
   129   422   423    1
   130   422   439    1
   131  1072  1092    1
   132  1010  1012    1
   133  1010  1033    1
   134  1042  1040    1
   135  1042  1043    1
   136  1042  1044    1
   137   966   944    1
   138  1096  1095    1
   139  1040  1057    1
   140  1040  1041    1
   141   396   397   ar
   142   396   406   ar
   143   227   202    1
   144   227   230    1
   145   423   424    1
   146   423   425    1
   147   943   968    1
   148   943   942    1
   149   374   357    1
   150   959   940    1
   151  1095  1098    1
   152   194   172    1
   153   194   196    1
   154   194   197    1
   155   968   970    1
   156  1012  1027    1
   157  1012  1013    1
   158  1063  1044    1
   159   944   942    1
   160   944   946    1
   161   247   231    1
   162  1028  1014    1
   163   373   357    1
   164   411   397    1
   165   172   171    1
   166   424   429    1
   167   357   356    1
   168   414   404    1
   169   248   231    1
   170   271   270   ar
   171   271   272   ar
   172   185   168    1
   173   270   269   ar
   174   405   406   ar
   175   405   403   ar
   176   216   198    1
   177   960   946    1
   178   198   197    1
   179   198   199    1
   180   428   448    1
   181   428   427    1
   182   285   274    1
   183   980   989   ar
   184   980   981   ar
   185   366   365   ar
   186   366   368   ar
   187   397   398   ar
   188   365   372   ar
   189  1044  1045    1
   190  1044  1046    1
   191   406   399   ar
   192   426   425    1
   193   426   449    1
   194   202   201    1
   195   988   989    1
   196   988   987    1
   197   942   940    1
   198   942   965    1
   199   186   169    1
   200   231   230    1
   201   231   232    1
   202   940   941    1
   203   940   939    1
   204   964   954    1
   205  1059  1054    1
   206   282   268    1
   207   946   941    1
   208   946   947    1
   209   472   453    1
   210   165   164    2
   211   425   427    1
   212   425   446    1
   213   441   429    1
   214   218   199    1
   215  1014  1013   ar
   216  1014  1015   ar
   217   352   333    1
   218  1045  1064    1
   219  1041  1046    1
   220  1013  1023   ar
   221   450   449    2
   222   404   403    1
   223   404   413    1
   224   997   987    1
   225   994   981    1
   226   989   983   ar
   227   955   954    1
   228   955   956    1
   229   429   427    1
   230   429   430    1
   231   174   193    1
   232   174   173    1
   233   168   169    1
   234   168   184    1
   235   168   167    1
   236   403   402   ar
   237   958   939    1
   238   427   447    1
   239   199   201    1
   240   199   200    1
   241  1098  1099    1
   242   169   171    1
   243   169   170    1
   244   274   284    1
   245   274   273    1
   246   171   191    1
   247   171   173    1
   248   981   982   ar
   249   473   453    1
   250   333   332    1
   251   269   268    1
   252   269   278   ar
   253   356   353    1
   254   272   273    1
   255   272   278   ar
   256   987   986    2
   257   954   953    2
   258   201   224    1
   259   201   203    1
   260   368   369   ar
   261  1046  1058    1
   262  1046  1047    1
   263   442   437    1
   264   449   452    1
   265   449   451    1
   266   939   957    1
   267   939   938    1
   268   372   377    1
   269   372   371   ar
   270   453   452    1
   271   453   454    1
   272   268   263    1
   273   268   266    1
   274   398   399   ar
   275   289   267    1
   276   399   400   ar
   277   351   332    1
   278   249   232    1
   279   252   245    1
   280  1054  1047   ar
   281  1054  1053   ar
   282   251   246    1
   283  1115  1099    1
   284   232   233    1
   285   232   234    1
   286   192   173    1
   287   947   956   ar
   288   947   948   ar
   289  1116  1099    1
   290   273   275    1
   291   173   175    1
   292   263   262    1
   293   474   454    1
   294   167   164    1
   295   956   950   ar
   296  1060  1053    1
   297   354   353    2
   298  1015  1016   ar
   299  1099  1100    1
   300   337   336    2
   301   258   257    2
   302   164   139    1
   303   164   166    1
   304  1120  1113    1
   305   278   277    1
   306   430   437   ar
   307   430   431   ar
   308  1023  1022   ar
   309  1023  1016   ar
   310   254   234    1
   311  1737  1736    2
   312   934   914    1
   313   983   982   ar
   314   983   984    1
   315  1047  1048   ar
   316   437   436   ar
   317   402   400   ar
   318   402   412    1
   319   332   334    1
   320   332   330    1
   321  1119  1114    1
   322   267   266    1
   323   233   238    1
   324   200   205    1
   325   170   175    1
   326  1053  1051   ar
   327   353   331    1
   328   353   355    1
   329   454   455    1
   330   454   456    1
   331   139   138    1
   332   204   203    1
   333   204   226    1
   334   245   246   ar
   335   245   243   ar
   336   246   239   ar
   337   346   334    1
   338   369   371   ar
   339   369   370    1
   340   953   951    1
   341   986   984    1
   342   331   330    1
   343   371   378    1
   344  1022  1020   ar
   345   400   401    2
   346   266   288    1
   347   266   264    1
   348   203   225    1
   349   203   205    1
   350   141   163    1
   351   141   140    1
   352   234   236    1
   353   234   235    1
   354   914   913    1
   355  1640  1639    2
   356   938   935    1
   357   933   913    1
   358  1016  1017   ar
   359   281   262    1
   360   918   917    2
   361   455   460    1
   362   175   187    1
   363   175   176    1
   364   260   257    1
   365   260   261    1
   366  1726  1706    1
   367  1122  1102    1
   368  1113  1114   ar
   369  1113  1111   ar
   370  1727  1707    1
   371   948   961    1
   372   948   949   ar
   373   262   261    1
   374   262   264    1
   375   432   431    2
   376   984   985    1
   377   334   335    1
   378   334   329    1
   379  1114  1107   ar
   380   275   276    2
   381   336   335   ar
   382   336   338   ar
   383   950   951    1
   384   950   949   ar
   385   431   433   ar
   386   345   328    1
   387  1757  1740    1
   388   257   235    1
   389   257   259    1
   390  1123  1104    1
   391   330   328    1
   392   330   350    1
   393   162   140    1
   394   255   236    1
   395  1725  1706    1
   396   205   219    1
   397   205   206    1
   398  1710  1736    1
   399  1710  1709    1
   400   436   443    1
   401   436   434   ar
   402  1100  1101    1
   403  1100  1102    1
   404  1100  1117    1
   405   277   276    1
   406   349   338    1
   407   155   136    1
   408   236   238    1
   409   236   237    1
   410   936   935    2
   411   484   483    2
   412   457   456    1
   413   457   483    1
   414   238   239    1
   415   238   250    1
   416   379   370    1
   417  1736  1738    1
   418  1736  1739    1
   419   951   952    1
   420  1048  1049    2
   421  1048  1050   ar
   422   476   462    1
   423   220   207    1
   424   239   240   ar
   425   913   915    1
   426   913   911    1
   427  1703  1702    2
   428  1756  1740    1
   429   370   380    1
   430   243   244    2
   431   243   242   ar
   432  1663  1644    1
   433  1706  1707    1
   434  1706  1705    1
   435   456   480    1
   436   456   458    1
   437   138   140    1
   438   138   136    1
   439   138   161    1
   440  1101  1106    1
   441  1102  1104    1
   442  1102  1103    1
   443   140   142    1
   444   261   280    1
   445   261   279    1
   446  1051  1050   ar
   447  1051  1052    2
   448   188   183    1
   449   264   287    1
   450   264   265    1
   451   276   286    1
   452   335   342   ar
   453   328   329    1
   454   328   327    1
   455  1707  1709    1
   456  1707  1708    1
   457   927   915    1
   458   154   135    1
   459  1104  1106    1
   460  1104  1105    1
   461  1642  1639    1
   462  1642  1643    1
   463   935   912    1
   464   935   937    1
   465   338   339   ar
   466  1020  1021    1
   467  1020  1019   ar
   468   917   919   ar
   469   917   916   ar
   470  1649  1671    1
   471  1649  1648    1
   472  1740  1739    1
   473  1740  1741    1
   474  1112  1111    2
   475  1111  1110   ar
   476   485   483    1
   477  1639  1614    1
   478  1639  1641    1
   479  1767  1766    2
   480  1031  1021    1
   481   483   486    1
   482   912   911    1
   483   176   183   ar
   484   176   177   ar
   485   136   135    1
   486   136   137    1
   487   460   475    1
   488   460   458    1
   489   460   461    1
   490  1017  1019   ar
   491  1017  1018    2
   492  1712  1735    1
   493  1712  1711    1
   494  1630  1611    1
   495  1107  1106    1
   496  1107  1108   ar
   497  1050  1061    1
   498   459   458    1
   499   459   482    1
   500   433   434   ar
   501   919   920   ar
   502  1709  1733    1
   503  1709  1711    1
   504   985   996    1
   505   985   995    1
   506   915   916    1
   507   915   910    1
   508   899   890    1
   509   434   435    1
   510  1106  1118    1
   511  1126  1125    2
   512   206   207   ar
   513   206   215   ar
   514   207   208   ar
   515   183   182   ar
   516   462   461   ar
   517   462   463   ar
   518   458   481    1
   519  1021  1030    1
   520   911   932    1
   521   911   909    1
   522  1682  1701    1
   523  1682  1681    1
   524   242   240   ar
   525   242   253    1
   526  1019  1029    1
   527   237   256    1
   528  1124  1105    1
   529   135   153    1
   530   135   134    1
   531  1644  1643    1
   532  1644  1645    1
   533  1644  1646    1
   534  1614  1613    1
   535   240   241    2
   536   265   290    1
   537   178   177    2
   538   952   962    1
   539   952   963    1
   540  1758  1741    1
   541  1705  1702    1
   542   916   923   ar
   543  1680  1702    1
   544  1680  1679    1
   545  1647  1646    1
   546  1647  1672    1
   547  1702  1704    1
   548   461   471   ar
   549  1708  1713    1
   550  1103  1125    1
   551  1643  1661    1
   552  1643  1662    1
   553   142   156    1
   554   142   137    1
   555   142   143    1
   556   177   179   ar
   557   926   909    1
   558  1127  1125    1
   559   900   890    1
   560   344   327    1
   561  1629  1610    1
   562  1673  1672    2
   563  1711  1734    1
   564  1711  1713    1
   565  1741  1743    1
   566  1741  1742    1
   567  1694  1677    1
   568  1645  1650    1
   569  1110  1108   ar
   570  1110  1121    1
   571  1744  1766    1
   572  1744  1743    1
   573   327   343    1
   574   327   326    1
   575   890   889    1
   576   342   347    1
   577   342   341   ar
   578  1125  1128    1
   579   930   921    1
   580  1664  1650    1
   581  1766  1768    1
   582  1766  1769    1
   583   339   340    2
   584   339   341   ar
   585  1611  1613    1
   586  1611  1610    1
   587  1611  1612    1
   588  1648  1646    1
   589  1648  1670    1
   590  1648  1650    1
   591  1628  1610    1
   592  1108  1109    2
   593  1213  1203    1
   594   134   131    1
   595  1646  1669    1
   596   503   487    1
   597   463   464   ar
   598  2052  2029    1
   599   909   910    1
   600   909   908    1
   601   435   445    1
   602   435   444    1
   603   920   921    1
   604   920   922   ar
   605  2029  2028    1
   606  2044  2024    1
   607   132   131    2
   608  1650  1651    1
   609   486   487    1
   610  1613  1636    1
   611  1613  1615    1
   612  1610  1609    1
   613   182   189    1
   614   182   180   ar
   615   208   209   ar
   616  1700  1681    1
   617  1510  1509    2
   618   313   294    1
   619  1713  1728    1
   620  1713  1714    1
   621   898   888    1
   622   215   214    1
   623   215   209   ar
   624  2018  1999    1
   625  1672  1674    1
   626  1672  1675    1
   627  1743  1763    1
   628  1743  1745    1
   629  1499  1482    1
   630   504   487    1
   631   341   348    1
   632   312   294    1
   633   921   931    1
   634  1498  1482    1
   635  1681  1679    1
   636  1681  1683    1
   637   151   152    1
   638   151   150    1
   639  1679  1677    1
   640  1679  1699    1
   641  2075  2058    1
   642  1612  1617    1
   643   487   488    1
   644  2045  2030    1
   645  1985  1975    1
   646  2073  2057    1
   647   326   323    1
   648   923   922   ar
   649   923   928    1
   650  1631  1617    1
   651  1677  1676    1
   652  1677  1678    1
   653  1500  1483    1
   654  1742  1747    1
   655   160   150    1
   656   214   213    1
   657   143   152   ar
   658   143   144   ar
   659  1692  1676    1
   660   179   180   ar
   661   179   190    1
   662   471   464   ar
   663   471   470   ar
   664  1635  1625    1
   665  1605  1583    1
   666  1999  1998    1
   667  1479  1478    2
   668  1203  1214    1
   669  1203  1202    1
   670   290   292    2
   671   290   293    1
   672   290   291    1
   673  1787  1770    1
   674  1469  1452    1
   675  1583  1582    1
   676   294   293    1
   677   294   295    1
   678   131   108    1
   679   131   133    1
   680   889   888   ar
   681   889   891   ar
   682  2012  2000    1
   683  1760  1755    1
   684  1786  1770    1
   685   209   210    1
   686   508   501    1
   687   464   465   ar
   688   922   929    1
   689  1482  1483    1
   690  1482  1481    1
   691   888   886   ar
   692  1145  1129    1
   693   152   146   ar
   694  1769  1770    1
   695  2074  2057    1
   696   180   181    2
   697  2042  2023    1
   698  2025  2024    1
   699  2025  2030    1
   700   150   149    2
   701  1695  1683    1
   702  2024  2023    1
   703  2024  2026    1
   704  2003  2002    2
   705  1617  1615    1
   706  1617  1618    1
   707  1245  1236    1
   708  1128  1129    1
   709   507   502    1
   710  1626  1625    1
   711  1626  1627    1
   712  1457  1477    1
   713  1457  1456    1
   714  1676  1675    1
   715  1676  1693    1
   716   925   908    1
   717  1770  1771    1
   718  2030  2028    1
   719  2030  2031    1
   720  2057  2058    1
   721  2057  2056    1
   722  1678  1683    1
   723   908   924    1
   724   908   907    1
   725  1683  1684    1
   726  2028  2051    1
   727  2028  2026    1
   728  1729  1715    1
   729  1509  1486    1
   730  1509  1511    1
   731  1509  1512    1
   732  1455  1478    1
   733  1455  1454    1
   734  1150  1143    1
   735  1486  1485    1
   736  2058  2059    1
   737  2058  2060    1
   738  1607  1606    2
   739  1615  1616    1
   740  1615  1637    1
   741  1483  1485    1
   742  1483  1484    1
   743   470   468   ar
   744  1468  1451    1
   745   157   144    1
   746  1609  1606    1
   747  2049  2039    1
   748  1173  1172    2
   749  1146  1129    1
   750  1651  1660   ar
   751  1651  1652   ar
   752  1625  1624    2
   753  2059  2064    1
   754  1714  1715   ar
   755  1714  1724   ar
   756  2027  2026    1
   757  2027  2053    1
   758  1975  1976    1
   759  1975  1974    2
   760   129   109    1
   761   144   145   ar
   762  1204  1202    1
   763  1204  1205    2
   764   108   107    1
   765  1746  1745    1
   766  1746  1765    1
   767  1129  1130    1
   768  1745  1747    1
   769  1745  1764    1
   770  2043  2023    1
   771  2011  1994    1
   772  2023  2022    1
   773  1233  1232    2
   774  1202  1201    1
   775   314   295    1
   776   891   892   ar
   777  1659  1660    1
   778  1659  1658    1
   779   110   130    1
   780   110   109    1
   781  1452  1451    1
   782  1452  1454    1
   783  1452  1453    1
   784  1616  1638    1
   785  2026  2050    1
   786  2076  2064    1
   787  2063  2082    1
   788  2063  2062    1
   789  2000  1998    1
   790  2000  1995    1
   791  2000  2001    1
   792  1478  1481    1
   793  1478  1480    1
   794  1747  1759    1
   795  1747  1748    1
   796   501   502   ar
   797   501   499   ar
   798  1467  1451    1
   799  1234  1232   ar
   800  1234  1235   ar
   801   488   489    1
   802   488   505    1
   803   488   490    1
   804  1597  1578    1
   805  1581  1606    1
   806  1581  1580    1
   807   213   223    1
   808   213   212    2
   809  1998  2017    1
   810  1998  1996    1
   811  1532  1513    1
   812  1755  1748   ar
   813  1755  1754   ar
   814  1149  1144    1
   815  1604  1582    1
   816  1715  1716   ar
   817   907   904    1
   818   502   495   ar
   819   295   296    1
   820   295   297    1
   821  1761  1754    1
   822  1665  1652    1
   823   323   325    2
   824   323   298    1
   825   323   324    1
   826  1598  1584    1
   827   489   494    1
   828   887   886    2
   829  1451  1450    1
   830  1236  1235    1
   831  1236  1246    1
   832   886   885   ar
   833  1976  1977    1
   834  1974  1972    1
   835  1606  1608    1
   836  1181  1174    1
   837   146   145   ar
   838   146   147    1
   839  1582  1580    1
   840  1582  1584    1
   841  2054  2053    2
   842   149   147    1
   843  1988  1966    1
   844  1686  1685    2
   845   465   466    2
   846   465   467   ar
   847  1995  1994    1
   848  1485  1506    1
   849  1485  1487    1
   850  2040  2038   ar
   851  2040  2041   ar
   852  1488  1508    1
   853  1488  1487    1
   854  1660  1654   ar
   855  1152  1142    1
   856  2002  2001   ar
   857  2002  2004   ar
   858  1454  1456    1
   859  1454  1475    1
   860  1627  1618   ar
   861  1627  1621   ar
   862   210   212    1
   863   210   211    1
   864  1446  1424    1
   865  1799  1797    2
   866  1484  1489    1
   867  1618  1619   ar
   868  2064  2062    1
   869  2064  2065    1
   870  2039  2048    1
   871  2039  2038    1
   872  1232  1231   ar
   873  2061  2060    1
   874  2061  2083    1
   875  1652  1653   ar
   876   510   490    1
   877  1668  1658    1
   878  1143  1144   ar
   879  1143  1141   ar
   880  1456  1476    1
   881  1456  1458    1
   882  1215  1205    1
   883   109   107    1
   884   109   111    1
   885   903   880    1
   886  2031  2041   ar
   887  2031  2032   ar
   888  2056  2053    1
   889  1453  1458    1
   890   298   297    1
   891   902   879    1
   892  1533  1513    1
   893   515   513    2
   894  1723  1724   ar
   895  1723  1721   ar
   896  2060  2062    1
   897  2060  2080    1
   898  1994  1996    1
   899  1994  1993    1
   900  1512  1513    1
   901  1748  1749   ar
   902  1724  1717   ar
   903  1172  1174   ar
   904  1172  1171   ar
   905  1205  1206    1
   906  1754  1752   ar
   907   468   467   ar
   908   468   469    1
   909  1235  1237   ar
   910  2053  2055    1
   911  1798  1797    1
   912  1424  1423    1
   913   107   128    1
   914   107   105    1
   915  1513  1514    1
   916  1470  1458    1
   917  1684  1685   ar
   918  1684  1691   ar
   919  1580  1578    1
   920  1580  1603    1
   921  1771  1788    1
   922  1771  1773    1
   923  1771  1772    1
   924  1624  1622    1
   925  1790  1785    1
   926  1584  1579    1
   927  1584  1585    1
   928  2062  2081    1
   929  2001  2008   ar
   930  1144  1137   ar
   931  2015  2004    1
   932  1658  1657    2
   933   147   148    1
   934  1578  1579    1
   935  1578  1577    1
   936   222   211    1
   937   490   491    1
   938   490   492    1
   939  1997  1996    1
   940  1997  2019    1
   941  2038  2037   ar
   942   296   301    1
   943  2103  2087    1
   944  2041  2034   ar
   945   892   885   ar
   946   892   882   ar
   947  1791  1784    1
   948  1443  1433    1
   949  1996  2016    1
   950  1249  1229    1
   951   500   499    2
   952  1174  1175   ar
   953   499   498   ar
   954   297   320    1
   955   297   299    1
   956  1158  1156    2
   957  1458  1459    1
   958  2022  2019    1
   959  1966  1965    1
   960   467   477    1
   961  1685  1687   ar
   962  1487  1489    1
   963  1487  1507    1
   964  1732  1722    1
   965  1130  1131    1
   966  1130  1147    1
   967  1130  1132    1
   968  1794  1773    1
   969  1797  1774    1
   970  1797  1800    1
   971  1201  1200   ar
   972  1201  1207   ar
   973   880   879    1
   974  2004  2005   ar
   975  1981  1967    1
   976   491   513    1
   977  2084  2083    2
   978   885   884   ar
   979   211   221    1
   980   495   494    1
   981   495   496   ar
   982  1448  1447    2
   983  1142  1141    1
   984  1142  1151    1
   985  1131  1136    1
   986  1248  1228    1
   987   479   469    1
   988   114   113    2
   989  1774  1773    1
   990  1716  1717   ar
   991  1501  1489    1
   992  1489  1490    1
   993  1544  1543    2
   994  1540  1516    1
   995   494   506    1
   996   494   492    1
   997  2046  2032    1
   998  2077  2072    1
   999  2009  1993    1
  1000   513   514    1
  1001   513   516    1
  1002  1445  1423    1
  1003  1696  1691    1
  1004  1450  1447    1
  1005  1153  1132    1
  1006  1977  1971   ar
  1007  1977  1968   ar
  1008  1773  1775    1
  1009  1772  1777    1
  1010  1182  1171    1
  1011  1987  1965    1
  1012  2032  2033   ar
  1013  1602  1592    1
  1014  1983  1973    1
  1015  1972  1973    1
  1016  1972  1971    1
  1017  1141  1140   ar
  1018   879   881    1
  1019   879   877    1
  1020  2065  2072   ar
  1021  2065  2066   ar
  1022  1593  1592    1
  1023  1593  1594    1
  1024   469   478    1
  1025   316   303    1
  1026   904   905    2
  1027   904   906    1
  1028   904   878    1
  1029  1654  1653   ar
  1030  1654  1655    1
  1031  1564  1547    1
  1032   122   105    1
  1033  2020  2019    2
  1034  1621  1622    1
  1035  1621  1620   ar
  1036  2083  2086    1
  1037  2083  2085    1
  1038  1200  1199   ar
  1039  1619  1632    1
  1040  1619  1620   ar
  1041  1242  1230    1
  1042  1993  2010    1
  1043  1993  1992    1
  1044  1595  1577    1
  1045  1717  1718   ar
  1046  1231  1230    1
  1047  1231  1238   ar
  1048  1171  1169   ar
  1049  1785  1784   ar
  1050  1785  1778   ar
  1051  1691  1690   ar
  1052  2019  2021    1
  1053  1721  1722    1
  1054  1721  1720   ar
  1055  2104  2087    1
  1056  1229  1228    1
  1057  1784  1782   ar
  1058  2067  2066    2
  1059  1622  1623    1
  1060  1502  1497    1
  1061   105   106    1
  1062   105   104    1
  1063  1722  1731    1
  1064  2087  2086    1
  1065  2087  2088    1
  1066  1206  1207    1
  1067  2072  2071   ar
  1068  1965  1967    1
  1069  1965  1963    1
  1070   148   158    1
  1071   148   159    1
  1072   111   123    1
  1073   111   112    1
  1074   111   106    1
  1075  1434  1433    1
  1076  1434  1435    1
  1077  1433  1432    2
  1078   896   881    1
  1079  1237  1238   ar
  1080  1237  1244    1
  1081  1132  1133    1
  1082  1132  1134    1
  1083  1577  1576    1
  1084  1577  1596    1
  1085  1423  1425    1
  1086  1423  1421    1
  1087  1749  1750    2
  1088  1749  1751   ar
  1089  1439  1425    1
  1090  1228  1230    1
  1091  1228  1226    1
  1092  1585  1594   ar
  1093  1585  1586   ar
  1094  2008  2013    1
  1095  2008  2007   ar
  1096   120   104    1
  1097  1973  1984    1
  1098  1967  1968    1
  1099  1967  1962    1
  1100   492   493    1
  1101   492   511    1
  1102  1752  1751   ar
  1103  1752  1753    2
  1104  1137  1136    1
  1105  1137  1138   ar
  1106  1514  1516    1
  1107  1514  1534    1
  1108  1514  1515    1
  1109  2037  2047    1
  1110  2037  2035   ar
  1111   882   881    1
  1112   882   883   ar
  1113  1207  1198   ar
  1114  1657  1655    1
  1115  1447  1422    1
  1116  1447  1449    1
  1117  2034  2033   ar
  1118  2034  2035   ar
  1119  1592  1591    2
  1120   498   496   ar
  1121   498   509    1
  1122  1422  1421    1
  1123   113   112   ar
  1124   113   115   ar
  1125  2066  2068   ar
  1126   865   856    1
  1127  1971  1970   ar
  1128  1230  1225    1
  1129  1175  1180    1
  1130  1175  1168   ar
  1131   301   299    1
  1132   301   315    1
  1133   301   302    1
  1134  1563  1547    1
  1135  1576  1573    1
  1136   881   876    1
  1137  1889  1879    1
  1138  2105  2088    1
  1139   496   497    2
  1140  1594  1588   ar
  1141  1516  1518    1
  1142  1516  1517    1
  1143   878   877    1
  1144   299   300    1
  1145   299   321    1
  1146  1687  1698    1
  1147  1687  1688   ar
  1148  1133  1156    1
  1149  1968  1969   ar
  1150  1156  1157    1
  1151  1156  1159    1
  1152  1536  1522    1
  1153  1136  1148    1
  1154  1136  1134    1
  1155  1541  1518    1
  1156  2005  2007   ar
  1157  2005  2006    2
  1158   833   823    1
  1159   300   322    1
  1160  1822  1815    1
  1161  1238  1243    1
  1162   884   883   ar
  1163  1459  1460   ar
  1164  1459  1466   ar
  1165  1890  1879    1
  1166  1547  1546    1
  1167  1547  1548    1
  1168  1461  1460    2
  1169  1793  1783    1
  1170   112   119   ar
  1171  1655  1656    1
  1172  1277  1267    1
  1173   303   302   ar
  1174   303   304   ar
  1175  1952  1941    1
  1176  1800  1801    1
  1177  1438  1419    1
  1178   877   901    1
  1179   877   875    1
  1180  1751  1762    1
  1181  1565  1548    1
  1182  1490  1497   ar
  1183  1490  1491   ar
  1184  1425  1420    1
  1185  1425  1426    1
  1186  1471  1466    1
  1187   104   121    1
  1188   104   103    1
  1189   540   526    1
  1190   115   116   ar
  1191  1777  1778    1
  1192  1777  1775    1
  1193  1777  1789    1
  1194  1497  1496   ar
  1195   802   792    1
  1196   493   512    1
  1197  1140  1138   ar
  1198  2088  2089    1
  1199  2088  2090    1
  1200  2035  2036    2
  1201  2089  2094    1
  1202   527   526   ar
  1203   527   528   ar
  1204  1543  1517    1
  1205  1543  1546    1
  1206  1543  1545    1
  1207  1778  1779   ar
  1208  2007  2014    1
  1209  1421  1419    1
  1210  1421  1444    1
  1211  1824  1814    1
  1212  1879  1878    1
  1213  1775  1776    1
  1214  1775  1795    1
  1215   671   661    1
  1216  1720  1718   ar
  1217  1720  1730    1
  1218  1992  1989    1
  1219   516   517    1
  1220  1199  1198   ar
  1221  1199  1212    1
  1222  1718  1719    2
  1223  2071  2078    1
  1224  2071  2069   ar
  1225  1432  1430    1
  1226   883   897    1
  1227  1690  1688   ar
  1228  1690  1697    1
  1229  1518  1519    1
  1230  1518  1520    1
  1231  1169  1168   ar
  1232  1169  1170    2
  1233   302   311   ar
  1234  1275  1268    1
  1235  1623  1633    1
  1236  1623  1634    1
  1237  1515  1520    1
  1238  1138  1139    2
  1239   856   866    1
  1240   856   855    1
  1241  1962  1961    1
  1242  1940  1939    2
  1243  1586  1599    1
  1244  1586  1587   ar
  1245  1134  1154    1
  1246  1134  1135    1
  1247  1782  1783    1
  1248  1782  1781   ar
  1249  1460  1462   ar
  1250   530   529    2
  1251   564   563    2
  1252  1435  1426   ar
  1253  1435  1429   ar
  1254  1980  1961    1
  1255  1466  1465   ar
  1256  2068  2069   ar
  1257  2068  2079    1
  1258  1921  1912    1
  1259  1168  1167    1
  1260   771   761    1
  1261   526   525   ar
  1262   823   834    1
  1263   823   822    1
  1264  1198  1197    1
  1265  1548  1549    1
  1266  1548  1550    1
  1267   608   598    1
  1268  1159  1160    1
  1269   801   792    1
  1270  1783  1792    1
  1271  1591  1589    1
  1272  1419  1420    1
  1273  1419  1418    1
  1274  1226  1247    1
  1275  1226  1227    1
  1276  1226  1224    1
  1277  1963  1964    1
  1278  1963  1961    1
  1279  1963  1986    1
  1280  1817  1801    1
  1281  1522  1523   ar
  1282  1522  1521   ar
  1283  1818  1801    1
  1284  1688  1689    2
  1285   770   761    1
  1286  1776  1796    1
  1287  1964  1989    1
  1288   792   791    1
  1289  1821  1816    1
  1290  1267  1276    1
  1291  1267  1266    1
  1292   119   124    1
  1293   119   118   ar
  1294  1801  1802    1
  1295  1815  1816   ar
  1296  1815  1813   ar
  1297   103   100    1
  1298   304   305   ar
  1299  1970  1969   ar
  1300  1252  1250    2
  1301  1588  1587   ar
  1302  1588  1589    1
  1303  1426  1427   ar
  1304  1225  1224    1
  1305  1969  1982    1
  1306  1227  1250    1
  1307   854   855   ar
  1308   854   852   ar
  1309  1574  1573    2
  1310   876   875    1
  1311   116   118   ar
  1312   116   117    1
  1313  1941  1939   ar
  1314  1941  1942   ar
  1315  2069  2070    2
  1316  1961  1960    1
  1317  1492  1491    2
  1318   536   517    1
  1319   895   875    1
  1320   661   672    1
  1321   661   660    1
  1322  2107  2102    1
  1323  1573  1575    1
  1324  1573  1551    1
  1325   609   598    1
  1326  1491  1493   ar
  1327   875   874    1
  1328  1519  1542    1
  1329   761   760    1
  1330  1520  1521    1
  1331  1520  1535    1
  1332   126   117    1
  1333  1814  1813    1
  1334  1814  1823    1
  1335  1656  1667    1
  1336  1656  1666    1
  1337  1922  1912    1
  1338   528   529   ar
  1339   528   535   ar
  1340  1496  1503    1
  1341  1496  1494   ar
  1342  2106  2094    1
  1343    96    86    1
  1344  1523  1524   ar
  1345  1939  1938   ar
  1346   855   857   ar
  1347  1268  1266   ar
  1348  1268  1269   ar
  1349   517   537    1
  1350   517   518    1
  1351  1135  1155    1
  1352  1845  1844    2
  1353  1912  1911    1
  1354   598   597    1
  1355  1943  1942    2
  1356   529   531   ar
  1357  2094  2095    1
  1358  2094  2092    1
  1359  1570  1550    1
  1360  1378  1369    1
  1361  1549  1554    1
  1362   118   125    1
  1363  1779  1781   ar
  1364  1779  1780    2
  1365  1589  1590    1
  1366  1816  1809   ar
  1367  1989  1990    2
  1368  1989  1991    1
  1369  1521  1531   ar
  1370   640   629    1
  1371   117   127    1
  1372  1830  1828    2
  1373  1878  1880    1
  1374  1878  1877    1
  1375  1183  1163    1
  1376  1250  1251    1
  1377  1250  1253    1
  1378   853   852    2
  1379  2090  2091    1
  1380  2090  2111    1
  1381  2090  2092    1
  1382  1430  1429    1
  1383  1430  1431    1
  1384  1377  1367    1
  1385   800   793    1
  1386  1397  1396    2
  1387  1224  1241    1
  1388  1224  1223    1
  1389  1550  1551    1
  1390  1550  1552    1
  1391   824   822    1
  1392   824   825    2
  1393  1266  1265   ar
  1394  1429  1428   ar
  1395  1813  1812   ar
  1396   563   565   ar
  1397   563   562   ar
  1398   822   821    1
  1399   311   305   ar
  1400   311   310    1
  1401  2102  2095   ar
  1402  2102  2101   ar
  1403  1955  1936    1
  1404  2091  2114    1
  1405  1462  1463   ar
  1406  1942  1944   ar
  1407   852   851   ar
  1408  1188  1186    2
  1409  1465  1472    1
  1410  1465  1463   ar
  1411   575   565    1
  1412   774   751    1
  1413  1437  1418    1
  1414   525   535   ar
  1415   525   524    1
  1416    86    85    2
  1417    86    87    1
  1418   662   660    1
  1419   662   663    2
  1420  1211  1197    1
  1421  1825  1804    1
  1422   631   630    2
  1423  1197  1195    1
  1424  1197  1192    1
  1425    98    76    1
  1426  1418  1436    1
  1427  1418  1417    1
  1428  1880  1881    2
  1429  1217  1195    1
  1430  1167  1162    1
  1431  1167  1179    1
  1432  1167  1165    1
  1433  2095  2096   ar
  1434  1274  1269    1
  1435  1160  1176    1
  1436  1160  1177    1
  1437  1160  1161    1
  1438   305   306    1
  1439  2093  2092    1
  1440  2093  2113    1
  1441  1162  1161    1
  1442  1413  1393    1
  1443   660   659    1
  1444   791   793   ar
  1445   791   790   ar
  1446   519   518    1
  1447   519   524    1
  1448    85    83    1
  1449  2108  2101    1
  1450   101   100    2
  1451  1567  1562    1
  1452  2092  2112    1
  1453   100   102    1
  1454   100    75    1
  1455  1269  1262   ar
  1456  1802  1803    1
  1457  1802  1804    1
  1458  1802  1819    1
  1459  1427  1428   ar
  1460  1427  1440    1
  1461  1954  1935    1
  1462  1493  1494   ar
  1463   561   562   ar
  1464   561   560   ar
  1465    99    77    1
  1466  1876  1877   ar
  1467  1876  1875   ar
  1468   535   534   ar
  1469   544   520    1
  1470  2101  2099   ar
  1471   760   762   ar
  1472   760   759   ar
  1473   736   727    1
  1474  1494  1495    1
  1475  1842  1843   ar
  1476  1842  1841   ar
  1477  1369  1379    1
  1478  1369  1368    1
  1479   793   794   ar
  1480  1195  1193    1
  1481  1195  1196    1
  1482   565   566   ar
  1483  1949  1937    1
  1484  1441  1431    1
  1485  1877  1883   ar
  1486  1803  1808    1
  1487    87    88    1
  1488   751   750    1
  1489   874   894    1
  1490   874   873    1
  1491   874   893    1
  1492  1960  1978    1
  1493  1960  1979    1
  1494  1960  1959    1
  1495  1524  1531   ar
  1496  1524  1525   ar
  1497   518   520    1
  1498   518   538    1
  1499  1844  1843   ar
  1500  1844  1846   ar
  1501   629   630   ar
  1502   629   627   ar
  1503  1216  1193    1
  1504  1463  1464    1
  1505  1163  1161    1
  1506  1163  1165    1
  1507  1163  1164    1
  1508  1218  1196    1
  1509  1911  1910   ar
  1510  1911  1913   ar
  1511   562   569   ar
  1512   310   309    1
  1513  1431  1442    1
  1514   597   599    1
  1515   597   596    1
  1516   857   864    1
  1517   857   858   ar
  1518  1271  1254    1
  1519  1590  1600    1
  1520  1590  1601    1
  1521  1367  1368   ar
  1522  1367  1365   ar
  1523  1531  1530   ar
  1524    94    84    1
  1525  1412  1392    1
  1526   531   541    1
  1527   531   532   ar
  1528  1938  1937    1
  1529  1938  1945   ar
  1530  1398  1396   ar
  1531  1398  1399   ar
  1532  1161  1178    1
  1533  1936  1935    1
  1534  1366  1365    2
  1535  1396  1395   ar
  1536  1298  1297    2
  1537  1910  1908   ar
  1538  1165  1184    1
  1539  1165  1166    1
  1540    77    76    1
  1541  2115  2114    2
  1542   769   759    1
  1543  1804  1805    1
  1544  1804  1806    1
  1545   762   763   ar
  1546   873   870    1
  1547  1222  1223    1
  1548  1222  1219    1
  1549  1554  1552    1
  1550  1554  1566    1
  1551  1554  1555    1
  1552   835   825    1
  1553  1809  1808    1
  1554  1809  1810   ar
  1555   825   826    1
  1556   524   539    1
  1557   524   522    1
  1558  1409  1400    1
  1559  1828  1805    1
  1560  1828  1829    1
  1561  1828  1831    1
  1562  1393  1392    1
  1563   549   547    2
  1564  1265  1263   ar
  1565   630   632   ar
  1566   673   663    1
  1567  2096  2097    2
  1568  2096  2098   ar
  1569  1192  1191    1
  1570   599   600    2
  1571  2114  2116    1
  1572  2114  2117    1
  1573  1552  1571    1
  1574  1552  1553    1
  1575   663   664    1
  1576  1223  1240    1
  1577  1223  1239    1
  1578    83    84    1
  1579    83    82    1
  1580  1935  1937    1
  1581  1935  1933    1
  1582   821   820   ar
  1583   821   827   ar
  1584   773   750    1
  1585  1843  1850   ar
  1586  1812  1810   ar
  1587   790   788   ar
  1588  1417  1414    1
  1589   868   848    1
  1590   628   627    2
  1591  1937  1932    1
  1592    76    74    1
  1593    76    78    1
  1594  1253  1254    1
  1595  1562  1555   ar
  1596  1562  1561   ar
  1597  1189  1186    1
  1598  1189  1190    1
  1599   759   757   ar
  1600   520   522    1
  1601   520   521    1
  1602   851   858   ar
  1603   851   850    1
  1604    84    95    1
  1605   737   727    1
  1606  1186  1164    1
  1607  1186  1187    1
  1608   727   726    1
  1609  1193  1191    1
  1610  1193  1194    1
  1611  1959  1956    1
  1612  1406  1394    1
  1613   318   307    1
  1614  1944  1945   ar
  1615  1944  1951    1
  1616  1368  1370   ar
  1617  1855  1841    1
  1618  2099  2098   ar
  1619  2099  2100    1
  1620   659   658   ar
  1621   659   665   ar
  1622    75    74    1
  1623  1856  1846    1
  1624  1365  1364   ar
  1625  1881  1891    1
  1626  1881  1882    1
  1627    88    82   ar
  1628    88    79   ar
  1629  1841  1840   ar
  1630   820   819   ar
  1631  1332  1331    2
  1632   767   752    1
  1633  1568  1561    1
  1634   306   307    1
  1635   306   308    1
  1636  1343  1333    1
  1637   627   626   ar
  1638  1221  1219    2
  1639  1808  1806    1
  1640  1808  1820    1
  1641  1392  1394    1
  1642  1392  1390    1
  1643   560   574    1
  1644   560   559   ar
  1645  1262  1263   ar
  1646  1262  1261    1
  1647  1254  1270    1
  1648  1254  1255    1
  1649   858   863    1
  1650  1555  1556   ar
  1651  2134  2118    1
  1652  1846  1847   ar
  1653  1875  1888    1
  1654  1875  1874   ar
  1655  1495  1505    1
  1656  1495  1504    1
  1657  1525  1526    2
  1658  1525  1527   ar
  1659   534   532   ar
  1660   735   725    1
  1661  1945  1950    1
  1662  1810  1811    2
  1663   750   752    1
  1664   750   748    1
  1665    82    81   ar
  1666  1920  1913    1
  1667   869   849    1
  1668  1530  1528   ar
  1669  2110  2100    1
  1670   794   799    1
  1671   794   787   ar
  1672   532   533    1
  1673   658   657   ar
  1674   777   775    2
  1675   596   595   ar
  1676   596   602   ar
  1677  1913  1914   ar
  1678   576   567    1
  1679   566   567    1
  1680   566   568   ar
  1681  1400  1399    1
  1682  1400  1410    1
  1683  1561  1559   ar
  1684   595   594   ar
  1685  1263  1264    2
  1686  1883  1882    1
  1687  1883  1874   ar
  1688  1399  1401   ar
  1689    74    97    1
  1690    74    72    1
  1691   848   850    1
  1692   848   849    1
  1693   848   846    1
  1694   309   308    2
  1695   309   319    1
  1696  2100  2109    1
  1697   522   545    1
  1698   522   523    1
  1699  1394  1395    1
  1700  1394  1389    1
  1701   307   317    1
  1702  1464  1473    1
  1703  1464  1474    1
  1704  1191  1190    1
  1705  1191  1210    1
  1706   862   850    1
  1707  1395  1402   ar
  1708  1297  1299   ar
  1709  1297  1296   ar
  1710  1219  1194    1
  1711  1219  1220    1
  1712  1256  1261    1
  1713  1256  1255    1
  1714  1185  1166    1
  1715   569   559   ar
  1716   569   568   ar
  1717  1831  1832    1
  1718  1908  1909    2
  1719  1908  1907   ar
  1720  1806  1826    1
  1721  1806  1807    1
  1722   763   753   ar
  1723   763   756   ar
  1724   521   547    1
  1725  1309  1299    1
  1726   826   827    1
  1727   827   818   ar
  1728   850   845    1
  1729    92    78    1
  1730    79    78    1
  1731    79    80   ar
  1732   664   665    1
  1733   752   753    1
  1734   752   747    1
  1735   872   870    2
  1736   547   548    1
  1737   547   550    1
  1738  1553  1572    1
  1739    78    73    1
  1740   600   610    1
  1741   600   601    1
  1742  1344  1335    1
  1743   665   656   ar
  1744   870   871    1
  1745   870   847    1
  1746   567   577    1
  1747  1190  1208    1
  1748  1190  1209    1
  1749   632   639    1
  1750   632   633   ar
  1751  2117  2118    1
  1752  1333  1331   ar
  1753  1333  1334   ar
  1754   788   787   ar
  1755   788   789    2
  1756   726   725   ar
  1757   726   728   ar
  1758   867   846    1
  1759  1850  1840   ar
  1760  1850  1849   ar
  1761   757   756   ar
  1762   757   758    2
  1763  1933  1953    1
  1764  1933  1934    1
  1765  1933  1931    1
  1766   725   723   ar
  1767  1932  1931    1
  1768  1331  1330   ar
  1769  2118  2135    1
  1770  2118  2119    1
  1771  1278  1257    1
  1772   559   558    1
  1773   749   748    1
  1774   749   775    1
  1775  1874  1873    1
  1776  1261  1273    1
  1777  1261  1259    1
  1778   643   624    1
  1779  1255  1257    1
  1780  1255  1272    1
  1781    81    80   ar
  1782  1370  1371   ar
  1783  1299  1300   ar
  1784  1295  1296   ar
  1785  1295  1294   ar
  1786  1414  1391    1
  1787  1414  1415    2
  1788  1414  1416    1
  1789  1840  1839    1
  1790  1527  1528   ar
  1791  1527  1537    1
  1792   753   754   ar
  1793   819   818   ar
  1794   819   832    1
  1795  1864  1862    2
  1796  1528  1529    1
  1797   787   786    1
  1798  1556  1557    2
  1799  1556  1558   ar
  1800  1364  1371   ar
  1801  1364  1363   ar
  1802   626   633   ar
  1803   626   625    1
  1804  1956  1934    1
  1805  1956  1958    2
  1806  1956  1957    1
  1807  1391  1390    1
  1808   796   779    1
  1809  1390  1411    1
  1810  1390  1388    1
  1811   846   847    1
  1812   846   844    1
  1813    80    93    1
  1814  1296  1303   ar
  1815   756   755   ar
  1816   748   746    1
  1817   748   772    1
  1818  1859  1835    1
  1819   775   776    1
  1820   775   778    1
  1821   766   746    1
  1822   533   542    1
  1823   533   543    1
  1824  1847  1849   ar
  1825  1847  1848    1
  1826    62    53    1
  1827   657   656   ar
  1828   657   670    1
  1829  1914  1907   ar
  1830  1914  1919    1
  1831    61    51    1
  1832   602   601    1
  1833   602   593   ar
  1834   550   551    1
  1835  1559  1558   ar
  1836  1559  1560    2
  1837  1807  1827    1
  1838   523   546    1
  1839  1907  1906    1
  1840   594   607    1
  1841   594   593   ar
  1842  1402  1401   ar
  1843  1402  1407    1
  1844  1401  1408    1
  1845  1335  1334    1
  1846  1335  1345    1
  1847   633   638    1
  1848   747   746    1
  1849   818   817    1
  1850  1389  1388    1
  1851   637   625    1
  1852  1257  1259    1
  1853  1257  1258    1
  1854    72    91    1
  1855    72    73    1
  1856    72    71    1
  1857  1931  1948    1
  1858  1931  1930    1
  1859  1371  1361   ar
  1860  1283  1281    2
  1861   656   655    1
  1862   624   623    1
  1863  1832  1851    1
  1864  1832  1852    1
  1865  1832  1833    1
  1866  2139  2132    1
  1867   728   729   ar
  1868  1558  1569    1
  1869  1405  1388    1
  1870  1334  1336   ar
  1871   803   782    1
  1872   746   745    1
  1873   845   844    1
  1874   724   723    2
  1875  2120  2119    1
  1876  2120  2125    1
  1877  2138  2133    1
  1878   808   806    2
  1879  1857  1848    1
  1880   723   722   ar
  1881    53    63    1
  1882    53    52    1
  1883    50    49    2
  1884  1388  1387    1
  1885  2119  2136    1
  1886  2119  2121    1
  1887  1259  1279    1
  1888  1259  1260    1
  1889    51    49   ar
  1890    51    52   ar
  1891   625   623    1
  1892   625   620    1
  1893  1294  1308    1
  1894  1294  1293   ar
  1895  1848  1858    1
  1896  1363  1362   ar
  1897  1330  1329   ar
  1898  1330  1337   ar
  1899  1529  1539    1
  1900  1529  1538    1
  1901  1310  1301    1
  1902   779   795    1
  1903   779   778    1
  1904   779   780    1
  1905   578   554    1
  1906  1834  1839    1
  1907  1834  1833    1
  1908   593   592    1
  1909   754   755   ar
  1910   754   768    1
  1911   558   553    1
  1912   558   573    1
  1913   558   556    1
  1914  2132  2133   ar
  1915  2132  2130   ar
  1916  1300  1301    1
  1917  1300  1302   ar
  1918  1839  1837    1
  1919  1839  1854    1
  1920  1835  1833    1
  1921  1835  1837    1
  1922  1835  1836    1
  1923  1885  1866    1
  1924  1873  1887    1
  1925  1873  1868    1
  1926  1873  1871    1
  1927  2133  2126   ar
  1928   553   552    1
  1929   844   861    1
  1930   844   843    1
  1931  2141  2131    1
  1932    49    48   ar
  1933   786   781    1
  1934   786   798    1
  1935   786   784    1
  1936   570   551    1
  1937  1833  1853    1
  1938  1862  1865    1
  1939  1862  1836    1
  1940  1862  1863    1
  1941  1303  1293   ar
  1942  1303  1302   ar
  1943    52    54   ar
  1944   781   780    1
  1945   642   623    1
  1946   841   839    2
  1947    70    71    1
  1948    70    67    1
  1949   623   621    1
  1950  1892  1869    1
  1951  1258  1281    1
  1952  1868  1867    1
  1953   551   552    1
  1954   551   571    1
  1955   583   581    2
  1956  1918  1906    1
  1957    90    71    1
  1958   669   655    1
  1959  1329  1328   ar
  1960  1924  1904    1
  1961    71    89    1
  1962   842   843    1
  1963   842   839    1
  1964   837   815    1
  1965  1301  1311    1
  1966  1906  1904    1
  1967  1906  1901    1
  1968  1837  1860    1
  1969  1837  1838    1
  1970   836   813    1
  1971   782   780    1
  1972   782   784    1
  1973   782   783    1
  1974   729   722   ar
  1975   729   719   ar
  1976  1281  1284    1
  1977  1281  1282    1
  1978  1865  1866    1
  1979  2131  2130    1
  1980  2131  2140    1
  1981   817   831    1
  1982   817   815    1
  1983   817   812    1
  1984   655   650    1
  1985   655   653    1
  1986  1929  1930    1
  1987  1929  1926    1
  1988  2130  2129   ar
  1989  1930  1946    1
  1990  1930  1947    1
  1991   780   797    1
  1992  1361  1362   ar
  1993  1361  1360    1
  1994   722   721   ar
  1995  2126  2125    1
  1996  2126  2127   ar
  1997  1336  1337   ar
  1998   784   804    1
  1999   784   785    1
  2000   740   717    1
  2001  2125  2137    1
  2002  2125  2123    1
  2003   676   654    1
  2004  2142  2121    1
  2005  1293  1292    1
  2006  1904  1905    1
  2007  1904  1902    1
  2008   554   552    1
  2009   554   556    1
  2010   554   555    1
  2011  1337  1327   ar
  2012   815   813    1
  2013   815   816    1
  2014   552   572    1
  2015   556   579    1
  2016   556   557    1
  2017  1871  1893    1
  2018  1871  1869    1
  2019  1871  1872    1
  2020  1866  1867    1
  2021  1866  1884    1
  2022  1260  1280    1
  2023  1925  1905    1
  2024   620   619    1
  2025  1362  1376    1
  2026  1897  1895    2
  2027   745   765    1
  2028   745   764    1
  2029   745   744    1
  2030   806   809    1
  2031   806   783    1
  2032   806   807    1
  2033  1923  1902    1
  2034  2121  2122    1
  2035  2121  2123    1
  2036   843   860    1
  2037   843   859    1
  2038   809   810    1
  2039   650   649    1
  2040    69    67    2
  2041  1869  1867    1
  2042  1869  1870    1
  2043   739   716    1
  2044  1381  1358    1
  2045    54    55   ar
  2046    48    55   ar
  2047    48    47   ar
  2048  1387  1404    1
  2049  1387  1386    1
  2050  1387  1403    1
  2051  1867  1886    1
  2052   839   814    1
  2053   839   840    1
  2054  2129  2127   ar
  2055   813   814    1
  2056   813   811    1
  2057  2127  2128    2
  2058  1284  1285    1
  2059  1375  1360    1
  2060   592   606    1
  2061   592   587    1
  2062   592   590    1
  2063    67    68    1
  2064    67    41    1
  2065   838   816    1
  2066  1382  1359    1
  2067  1901  1900    1
  2068   812   811    1
  2069   622   621    1
  2070   622   644    1
  2071   733   718    1
  2072    65    42    1
  2073  1386  1383    1
  2074    55    45   ar
  2075  1928  1926    2
  2076  2122  2145    1
  2077   621   619    1
  2078   621   641    1
  2079   717   716    1
  2080  1328  1327   ar
  2081  1328  1342    1
  2082  1902  1900    1
  2083  1902  1903    1
  2084   744   741    1
  2085  1360  1358    1
  2086  1360  1355    1
  2087  1894  1872    1
  2088   581   584    1
  2089   581   555    1
  2090   581   582    1
  2091   653   654    1
  2092   653   675    1
  2093   653   651    1
  2094   719   718    1
  2095   719   720   ar
  2096  1358  1359    1
  2097  1358  1356    1
  2098   611   588    1
  2099  2123  2124    1
  2100  2123  2143    1
  2101   584   585    1
  2102  1838  1861    1
  2103    47    46   ar
  2104    15    14    2
  2105   716   718    1
  2106   716   714    1
  2107   587   586    1
  2108   580   557    1
  2109   721   720   ar
  2110  1926  1903    1
  2111  1926  1927    1
  2112   612   590    1
  2113   666   648    1
  2114  1327  1326    1
  2115   805   785    1
  2116   590   588    1
  2117   590   591    1
  2118   718   713    1
  2119   619   636    1
  2120   619   618    1
  2121  1898  1895    1
  2122  1898  1899    1
  2123   646   644    2
  2124   811   810    1
  2125   811   830    1
  2126  1312  1288    1
  2127  1292  1287    1
  2128  1292  1307    1
  2129  1292  1290    1
  2130  1895  1870    1
  2131  1895  1896    1
  2132   647   644    1
  2133   647   648    1
  2134   810   828    1
  2135   810   829    1
  2136  1287  1286    1
  2137    26    16    1
  2138  2124  2144    1
  2139  1900  1899    1
  2140  1900  1917    1
  2141    64    40    1
  2142  1380  1356    1
  2143   649   648    1
  2144   649   668    1
  2145   649   651    1
  2146    42    43    1
  2147    42    40    1
  2148    42    44    1
  2149   644   645    1
  2150   616   614    2
  2151   720   734    1
  2152    45    46   ar
  2153    45    44    1
  2154   588   586    1
  2155   588   589    1
  2156   613   591    1
  2157    66    43    1
  2158  1317  1315    2
  2159  1285  1304    1
  2160  1285  1286    1
  2161  1285  1305    1
  2162   617   618    1
  2163   617   614    1
  2164   648   667    1
  2165    46    60    1
  2166    14    16   ar
  2167    14    13   ar
  2168    41    40    1
  2169  1356  1357    1
  2170  1356  1354    1
  2171    16    17   ar
  2172  1355  1354    1
  2173   586   585    1
  2174   586   605    1
  2175    40    38    1
  2176   651   652    1
  2177   651   674    1
  2178  1899  1915    1
  2179  1899  1916    1
  2180   585   603    1
  2181   585   604    1
  2182  1290  1288    1
  2183  1290  1313    1
  2184  1290  1291    1
  2185  1288  1286    1
  2186  1288  1289    1
  2187  1383  1385    2
  2188  1383  1357    1
  2189  1383  1384    1
  2190   618   634    1
  2191   618   635    1
  2192  1286  1306    1
  2193   741   715    1
  2194   741   743    2
  2195   741   742    1
  2196   714   738    1
  2197   714   715    1
  2198   714   712    1
  2199    27    18    1
  2200  1341  1326    1
  2201    44    59    1
  2202    44    39    1
  2203  1326  1324    1
  2204  1326  1321    1
  2205   614   589    1
  2206   614   615    1
  2207   713   712    1
  2208   652   677    1
  2209    13    12   ar
  2210    13    20   ar
  2211  1346  1322    1
  2212  1347  1324    1
  2213  1351  1349    2
  2214    12    11   ar
  2215    17    18    1
  2216    17    19   ar
  2217  1354  1374    1
  2218  1354  1353    1
  2219    18    28    1
  2220  1324  1322    1
  2221  1324  1325    1
  2222  1352  1349    1
  2223  1352  1353    1
  2224  1315  1318    1
  2225  1315  1289    1
  2226  1315  1316    1
  2227  1318  1319    1
  2228  1314  1291    1
  2229   712   732    1
  2230   712   711    1
  2231  1321  1320    1
  2232    29     5    1
  2233  1322  1320    1
  2234  1322  1323    1
  2235  1348  1325    1
  2236    38    39    1
  2237    38    58    1
  2238    38    37    1
  2239    20    19   ar
  2240    20    10   ar
  2241    36    37    1
  2242    36    33    1
  2243    11    25    1
  2244    11    10   ar
  2245    35    33    2
  2246  1349  1323    1
  2247  1349  1350    1
  2248    32     1    1
  2249  1353  1372    1
  2250  1353  1373    1
  2251     6     5    1
  2252     6    33    1
  2253   698   681    1
  2254     1     2    1
  2255    57    37    1
  2256    30     7    1
  2257    37    56    1
  2258  1320  1319    1
  2259  1320  1340    1
  2260    10     9    1
  2261   677   679    2
  2262   677   680    1
  2263   677   678    1
  2264     5     7    1
  2265     5     3    1
  2266   710   711    1
  2267   710   707    1
  2268    33    34    1
  2269  1319  1338    1
  2270  1319  1339    1
  2271   704   684    1
  2272   711   730    1
  2273   711   731    1
  2274   680   681    1
  2275     7     9    1
  2276     7     8    1
  2277   709   707    2
  2278   681   697    1
  2279   681   682    1
  2280    22     2    1
  2281     2     3    1
  2282     2    21    1
  2283     9     4    1
  2284     9    24    1
  2285     3     4    1
  2286     3    23    1
  2287   707   685    1
  2288   707   708    1
  2289   684   682    1
  2290   684   685    1
  2291   684   686    1
  2292   705   686    1
  2293     8    31    1
  2294   682   699    1
  2295   682   683    1
  2296   686   687    1
  2297   686   688    1
  2298   687   706    1
  2299   701   696    1
  2300   683   688    1
  2301   688   689    1
  2302   688   700    1
  2303   696   689   ar
  2304   696   695   ar
  2305   702   695    1
  2306   689   690   ar
  2307   695   693   ar
  2308   690   691    2
  2309   690   692   ar
  2310   693   692   ar
  2311   693   694    2
  2312   692   703    1
